  # total energy = -7880.78774502 
CRSYTAL
PRIMVEC
    15.6080000000000005    0.0000000000000000    0.0000000000000000
     0.0000000000000000   15.6080000000000005    0.0000000000000000
     0.0000000000000000    0.0000000000000000   16.6239999999999988
PRESSURE
-0.415926 -0.594317 -0.530944 -0.055531 -0.004529 -0.027654
PRIMCOORD
320 1
Pb       4.03793      3.92829      4.23535        -0.225801     -0.228153     -0.299671
Pb       3.93295      3.93876     16.57406        -0.052049      0.225576     -0.052641
Pb       3.94361      0.08156      4.07914        -0.389346     -0.313955      0.300425
Pb       3.83145     15.58460     16.46996        -0.017536      0.049950      1.072193
Pb      15.58796      3.86425      4.11510        -0.142392     -0.394195      0.266754
Pb      15.57374      3.78304     16.60335         0.390382      0.100163      0.157549
Pb      15.54361     15.58967      4.07865         0.202263      0.403033      0.104512
Pb      15.60049      0.03249     16.60265         0.085089     -0.276943      0.335686
Pb       3.83575      3.83660      8.25279         0.148540      0.067518      0.105333
Pb       3.98203      0.04572      8.22992        -0.071790     -0.140408     -0.532505
Pb      15.52266      3.92177      8.26235         0.355025     -0.191601      0.648588
Pb       0.03001     15.57460      8.24741         0.144074     -0.131645      0.085486
Pb       3.70185      3.95890     12.64992         0.392477      0.142766     -0.974488
Pb       3.83032     15.48394     12.54936         0.177682     -0.005032     -1.003989
Pb      15.57889      3.93160     12.57291         0.190173     -0.264416     -0.908126
Pb       0.14836     15.57498     12.47316        -0.367415      0.120147     -0.329014
Pb       3.74890      7.87600      3.99815         0.469893      0.501291      0.570232
Pb       3.89327      7.65640     16.58015        -0.091401      0.493300     -0.221806
Pb       0.05116      7.87383      4.07577         0.203419      0.297621      0.084836
Pb      15.52279      7.74753     16.60160         0.277760      0.296104     -0.049727
Pb       3.88930      7.76464      8.34269         0.253702     -0.113204     -0.047355
Pb      15.36846      7.73487      8.52667         0.407196     -0.008386     -0.288214
Pb       3.93362      7.84399     12.45146        -0.230118     -0.116941     -0.215804
Pb      15.41107      7.72851     12.50800         0.458596      0.056065     -0.373944
Pb       3.85837     11.70329      4.07781        -0.127482     -0.055251      0.117238
Pb       3.90889     11.65675     16.54329        -0.048352      0.011926      0.592445
Pb      15.56153     11.76334      4.11739         0.729454     -0.329188     -0.218921
Pb      15.56893     11.79917      0.02304         0.039508     -0.361456     -0.577674
Pb       3.84574     11.88110      8.31711         0.079087     -0.241091     -0.289310
Pb      15.58115     11.64938      8.12486         0.453646      0.375227      0.341219
Pb       3.88929     11.68632     12.30010         0.082783     -0.122097      0.316428
Pb       0.05380     11.56907     12.41758         0.079802      0.240079      0.174541
Pb       7.76131      3.68735      4.14486        -0.107565      0.239207     -0.534806
Pb       7.78360      3.88345     16.54546        -0.168801     -0.206468      0.339305
Pb       7.78016     15.48755      4.14333        -0.358822      0.560095      0.324957
Pb       7.81328      0.08358     16.58785         0.005466     -0.412169      0.108361
Pb       7.70934      3.80780      8.53279        -0.442861      0.217422     -0.828611
Pb       7.85027     15.57875      8.33460        -0.670100      0.234040     -0.956615
Pb       7.78038      3.67724     12.47794         0.195941      0.604397      0.946461
Pb       7.83901     15.58308     12.50584        -0.415968     -0.327659      0.044249
Pb       7.88370      7.80955      4.09468        -0.553984      0.163746     -0.464348
Pb       7.70556      7.81667     16.54271        -0.432654     -0.001962      0.353016
Pb       7.92936      7.86617      8.20556        -0.932165     -0.264534      0.715317
Pb       7.92384      7.61439     12.40172        -0.807480      0.456200      0.377482
Pb       7.85673     11.72133      4.05842        -0.532725     -0.651801      0.478577
Pb       7.77069     11.74624     16.48283         0.179070      0.005061      0.524041
Pb       7.72132     11.71217      8.24332        -0.069701     -0.253710     -0.118936
Pb       7.82491     11.57243     12.41480         0.322198     -0.154015      0.055490
Pb      11.76648      3.83289      4.30384         0.098189     -0.133690     -0.364382
Pb      11.73373      4.09443      0.22572        -0.109564     -0.797890     -0.081632
Pb      11.46088     15.59602      4.16787         0.970243      0.155311     -0.224402
Pb      11.64806     15.59752     16.50603         0.370053     -0.347775      0.598668
Pb      11.65065      4.10626      8.41812        -0.120532     -0.210299     -0.340079
Pb      11.56743      0.07048      8.33958         0.555326     -0.066709     -0.217988
Pb      11.81989      3.74879     12.46745        -0.466332      0.201516      0.356195
Pb      11.57318     15.49352     12.36368         0.622591      0.156624      0.134422
Pb      11.68170      7.63630      4.01128         0.129094      0.235101      0.688023
Pb      11.67820      7.83123      0.02119         0.493287     -0.096445      0.090598
Pb      11.65795      7.81629      8.26016         0.067682      0.419508     -0.049771
Pb      11.47338      7.95418     12.50016         0.707616     -0.005816     -0.058569
Pb      11.80085     11.45072      4.26237        -0.118249      0.311302     -0.255306
Pb      11.84265     11.67688     16.58919        -0.501972      0.103504     -0.123933
Pb      11.77101     11.86841      8.41855        -0.240234     -0.827856     -0.435667
Pb      11.72407     11.74368     12.38974        -0.379584     -0.378599     -0.101981
Ti       1.91307      2.03241      2.12720        -0.037733     -1.425419      0.781354
Ti       1.98574      1.93680     14.56786        -0.379737      0.290934     -0.071131
Ti       1.89631     13.67028      2.15453         0.481570      0.985416      0.920650
Ti       1.87506     13.62319     14.66242         0.133016     -0.978300     -0.686122
Ti      13.54927      1.89293      2.19947         0.383378      0.005701      0.428613
Ti      13.70813      1.89597     14.64954        -0.569499     -0.444143     -1.126329
Ti      13.54977     13.59007      2.25661        -0.112803      1.011431     -0.042249
Ti      13.64650     13.59238     14.59174         0.128710      0.327008      0.196919
Ti       1.88381      1.95026      6.33259         1.019241     -0.595098      0.384775
Ti       1.91801     13.63783      6.26349         0.371525      0.192185      0.233669
Ti      13.62266      1.90500      6.55622        -0.194200     -0.281284     -1.001334
Ti      13.57198     13.58844      6.38326         0.407606      1.073323      0.338691
Ti       1.93040      1.91578     10.53883         0.040613      0.105552      0.014470
Ti       1.87655     13.53029     10.45434         1.358017      1.474868     -0.645412
Ti      13.64592      1.93233     10.56663         0.658600     -0.358364     -0.155118
Ti      13.74130     13.71523     10.53297        -0.271053     -0.015620      0.193758
Ti       2.01047      5.77409      2.28405        -0.684315      0.470473     -0.703133
Ti       1.81872      5.89527     14.70227         1.445369      0.131612     -0.481384
Ti      13.72846      5.78331      2.27628        -0.332140     -0.674533     -0.470757
Ti      13.60668      5.71433     14.69781         0.020242      0.390761     -0.622613
Ti       1.83511      5.86920      6.40094         1.298584     -0.356542     -0.007959
Ti      13.58887      5.85096      6.46000        -0.437399     -0.225593     -0.864571
Ti       1.96262      5.85707     10.52291         0.255804     -0.238293      0.350591
Ti      13.56421      5.82716     10.64984         0.558198      0.256993     -0.687060
Ti       1.96376      9.81754      2.05037        -0.452411     -0.135341      1.650744
Ti       1.95593      9.77054     14.63124        -0.203550      0.081146     -0.076545
Ti      13.63045      9.64520      2.23231         1.045921      0.364753     -0.130897
Ti      13.64143      9.64906     14.67645         0.004939      0.629379      1.008350
Ti       1.98963      9.68515      6.37692         0.297803      0.648986     -0.783747
Ti      13.76745      9.66987      6.33509        -1.492397     -0.149470     -0.133908
Ti       2.00370      9.72144     10.48557         0.465954     -0.956042     -0.384276
Ti      13.70578      9.73997     10.49906        -0.773517     -0.622659     -0.558459
Ti       5.80356      1.92147      2.10418         0.091782      1.071568     -0.444779
Ti       5.87128      1.86337     14.73896        -0.395899      0.637145     -1.136449
Ti       5.79093     13.70065      2.21363        -0.577172     -0.633451     -0.025211
Ti       5.82695     13.62372     14.66536        -0.086044      0.228453     -0.129882
Ti       5.90730      2.00429      6.34070        -0.265430     -1.385779      0.072776
Ti       5.79656     13.57546      6.25416         0.042824      1.880813      0.262582
Ti       5.79164      1.86744     10.71361        -0.704485      0.140068     -1.210659
Ti       5.90484     13.61815     10.51462        -0.907105      0.680684     -1.268781
Ti       5.79933      5.91760      2.17222         0.524016     -0.930404      0.062783
Ti       5.85832      5.84226     14.60831        -0.378790      0.120518      0.384500
Ti       5.80608      5.82025      6.32830        -0.914032      0.200822      0.519576
Ti       5.87976      5.67549     10.67016        -0.831444      0.994888      1.085830
Ti       5.86694      9.82424      2.16184        -0.864051      0.136663     -0.271271
Ti       5.74505      9.78834     14.63820         0.453636     -0.716475      0.180531
Ti       5.78154      9.73804      6.36286         0.037696     -0.317113     -0.509333
Ti       5.98094      9.64282     10.59151        -1.365051     -0.149541     -1.893381
Ti       9.70125      1.86533      2.12911         0.140862      1.064398     -0.133900
Ti       9.91307      1.94344     14.70175        -0.443232      0.365129      1.573275
Ti       9.69792     13.54350      2.26215         1.055283      0.770405     -1.183894
Ti       9.76690     13.59235     14.64583        -0.120898     -0.417462      0.396789
Ti       9.76963      2.03841      6.38760        -1.234648     -0.266623     -0.126450
Ti       9.75141     13.66747      6.29260        -0.987267     -0.198588      1.919590
Ti       9.76558      1.91500     10.56528         0.229313      0.382350     -0.159935
Ti       9.69440     13.60791     10.41048         0.311552     -0.393233      1.016688
Ti       9.69534      5.73956      2.21414         0.038219     -0.317030      0.122914
Ti       9.77311      5.79864     14.80827        -0.230484     -0.661933     -0.494800
Ti       9.56970      5.87007      6.26560         0.518739     -0.720351      0.893004
Ti       9.75992      5.78897     10.67026        -0.240043     -0.164606     -0.984265
Ti       9.77673      9.72815      2.20450        -0.337532      0.472693     -0.092570
Ti       9.66779      9.66240     14.86134         0.580760      1.988525     -1.970347
Ti       9.73828      9.74915      6.34528         1.134874      0.593764      0.862954
Ti       9.78480      9.74201     10.48003         0.281186      0.287602      0.389339
O       1.80954      1.96449      0.35704         0.171993      0.013553     -0.288261
O       1.96495      1.94206     12.73307        -0.033155      0.027317      1.501392
O       1.66124     13.81110      0.39149         0.075385     -0.760857     -0.790243
O       1.84088     13.51027     12.83580         0.548564      0.403310      0.685917
O      13.63924      2.04264      0.42404         0.028197     -0.325650     -0.231983
O      13.53963      1.89226     12.81408         0.169804     -0.123636      1.451924
O      13.61802     13.77430      0.46820         0.369782     -1.054441      0.550294
O      13.65230     13.58930     12.80593        -0.205515     -0.153913     -0.168991
O       1.89421      1.85040      4.57578        -0.040541      0.445900     -0.370250
O       1.98424     13.55777      4.49166        -0.055603      0.440204      0.050334
O      13.60905      1.93190      4.76558        -0.073536      0.193856      0.037960
O      13.40670     13.67965      4.65512         0.561469     -0.314649     -0.912688
O       2.01433      1.82879      8.75545        -0.189848      0.329129      0.223162
O       1.98455     13.53422      8.63073        -0.316661      0.163496      0.532312
O      13.68800      1.89131      8.77493        -0.103961      0.372290     -0.256632
O      13.75478     13.46838      8.77694        -0.179062     -0.082915     -0.633453
O       1.96671      5.82387      0.51432         0.123429      0.269195     -1.194004
O       1.95200      5.83091     12.91133        -0.618242     -0.072691      0.515261
O      13.56781      5.78526      0.44027         0.190851     -0.213842     -0.011575
O      13.77270      5.76222     12.88671        -0.423276      0.165959      0.061931
O       1.80986      5.60942      4.61348         0.102451      1.076896      0.170198
O      13.61042      5.73735      4.65557         0.150122      0.302812      0.322605
O       2.04796      5.84296      8.74858        -0.245830      0.251546     -0.097993
O      13.60912      5.90627      8.78884        -0.262697     -0.044757      0.502331
O       2.14161      9.75076      0.34581        -0.778644      0.079533     -1.359817
O       2.12521      9.74023     12.83626        -1.074568      0.430168      0.189370
O      13.52415      9.61973      0.45128         0.354929     -0.071049     -0.392345
O      13.59995      9.60483     12.93523         0.227765      0.428934     -0.607389
O       1.81885      9.71243      4.55963         0.057369      0.021331      0.302872
O      13.81342      9.59116      4.46248        -0.454839      0.547853      1.089969
O       2.11234      9.69918      8.66476        -0.358726      0.147315      0.549236
O      13.58177      9.72019      8.65977         0.613687     -0.044352      0.868881
O       5.73052      1.89229      0.27587         0.129675      0.205885      0.609203
O       5.94206      1.76766     12.89053        -0.361440      0.078484      0.852819
O       5.89152     13.60885      0.47035         0.374753      0.197667     -1.065676
O       5.69731     13.75111     12.88332         0.294682     -0.380787      0.491399
O       5.93612      2.09875      4.52704        -0.200712     -0.097749     -0.382045
O       5.62555     13.65028      4.48141         0.734411     -0.410292     -0.887699
O       5.97270      2.06910      8.82693        -0.053143     -0.593954      1.116595
O       5.82721     13.72349      8.65086         0.224711     -0.055515      1.014091
O       5.67586      5.88152      0.38371         0.163019     -0.049320     -0.037109
O       5.97164      5.84046     12.84689        -0.203510      0.279374      1.111726
O       5.69235      5.68612      4.55156         0.689012      0.317671     -0.111614
O       5.74402      5.68315      8.96963         0.221889     -0.293045     -2.102215
O       5.79826      9.84545      0.35917         0.201428     -0.249299      0.262071
O       5.90584      9.83946     12.86475         0.251531      0.010633     -0.612372
O       5.71860      9.78095      4.58404         0.747915     -0.100810     -0.568161
O       5.86273      9.68209      8.76569         0.120132      0.048997     -0.031136
O       9.87297      2.03504      0.35009        -0.559878     -0.604988      0.254255
O       9.97493      1.75644     12.97019        -0.578125      0.064136     -1.443338
O       9.74356     13.63641      0.49123        -0.103601      0.038688     -0.281541
O       9.82855     13.75222     12.86451         0.065879     -0.432652     -0.214239
O       9.60634      1.94627      4.59274         0.250692     -0.156889      0.089154
O       9.72679     13.84482      4.55074         0.335215     -0.702778     -0.925947
O       9.72767      2.04222      8.75808        -0.266731     -0.154447      0.728519
O       9.60697     13.63458      8.67246         0.227881     -0.026018     -0.812938
O       9.93764      5.75223      0.42495        -0.570716      0.347694     -0.273592
O       9.83526      5.95046     13.04290        -0.507588      0.221420     -0.413039
O       9.47512      5.94782      4.48884         0.492681      0.063455     -0.089980
O       9.73257      5.75145      8.89178         0.058296     -0.076397     -0.034131
O       9.67429      9.78786      0.44023         0.495294     -0.073293     -0.658684
O       9.75378      9.79073     12.97940        -0.041415     -0.561611      0.199244
O       9.76276      9.86330      4.59414        -0.214665     -0.551993     -1.549978
O       9.90612      9.75599      8.76177        -0.485932     -0.276941     -1.332191
O       3.85068      1.82643      2.42439        -0.095318      0.548437      0.009920
O       3.85033      1.81849     14.82423        -0.112926      0.487936      0.270186
O       3.85048     13.76213      2.34292        -0.021119      0.149067      0.172702
O       3.85364     13.63446     15.23320         0.605890      0.243060     -1.403421
O      15.49385      2.10179      2.51536         0.219865     -0.348286     -0.139364
O       0.02987      2.00964     14.83715        -0.357019     -0.780641      0.235519
O       0.02405     13.69150      2.73691        -1.613965     -0.991007     -0.707134
O      15.58954     13.47808     14.83330        -0.291695      0.341679      0.618378
O       4.01483      1.91972      6.60829        -1.486109      0.397945      0.356092
O       3.91664     13.58504      6.57445        -0.548700     -0.159184      0.482603
O       0.04710      1.98746      6.78142        -0.970700     -0.526812     -0.159202
O      15.52498     13.70688      6.54931         0.410265     -0.637547      0.088770
O       3.92679      2.05435     10.83996        -0.548232     -0.659886      0.089570
O       3.78207     13.65960     10.83879         0.911151     -0.225911     -0.150371
O      15.49611      1.93593     11.00640         1.084130      0.234791     -0.576465
O       0.07462     13.66795     10.80651        -1.765253     -0.343003      0.261905
O       3.89523      5.66815      2.53034        -0.139894      0.802145      0.216580
O       3.83036      5.94054     14.89510         0.529962     -0.472460      0.270256
O      15.59377      5.61851      2.40361        -0.630939      0.694429      0.475941
O      15.54412      5.74284     14.96845         0.471286      0.560265      0.491576
O       3.81592      5.73872      6.70362         0.347404     -0.176896     -0.169599
O      15.54067      5.98377      6.92547         0.408593     -0.549793     -0.821631
O       3.95266      5.89919     11.02469        -0.632813     -0.814260     -0.126072
O       0.01173      5.79433     10.79286        -0.251069      0.774148      0.206332
O       3.78341      9.88036      2.42358         1.103655     -1.086334      0.689517
O       3.85603      9.73234     14.84323         1.280674      0.119452      0.452829
O      15.60469      9.73341      2.37772        -0.430433     -0.100787      0.025532
O       0.01559      9.78461     15.02938        -0.468909     -0.142960     -0.065226
O       3.93576      9.75069      6.45556        -0.891835      0.485725      0.942507
O       0.02986      9.64655      6.72677        -0.581027      0.190960     -0.093787
O       3.98465      9.76183     10.89178        -0.394603      0.309577     -0.301965
O       0.02693      9.59529     10.87747         0.145644      0.034959     -0.306000
O       7.73430      1.95241      2.35025         0.701876     -0.169029      0.100031
O       7.69537      2.02001     14.99062         1.209394     -0.454147      0.196838
O       7.80598     13.47159      2.52186        -0.678674      0.835552      0.294292
O       7.85304     13.55097     14.84871        -1.377430      0.592957      0.306825
O       7.76954      1.82981      6.67780         1.008658      0.456534      0.399763
O       7.82748     13.74800      6.40578        -0.117935     -0.190944      0.694697
O       7.84320      1.78101     11.05024         0.913925      0.598698     -0.901942
O       7.79472     13.72211     10.74474         0.202874     -0.183548      0.451168
O       7.73598      5.91068      2.39293         0.345202      0.130911      0.078967
O       7.78331      5.81299     15.08092         0.046693      0.463688     -0.058160
O       7.68278      5.83867      6.81895         0.912004      0.549784     -0.600750
O       7.81958      5.68876     10.97238         0.642900      0.406375     -0.064057
O       7.76658      9.84975      2.45057        -0.100901     -0.367059      0.396632
O       7.79585      9.76669     14.96936        -0.450589      0.051603      0.348470
O       7.83468      9.66936      6.62872        -0.711743     -0.476250      0.278900
O       7.86410      9.77425     10.68994        -0.056828      0.139312      0.832729
O      11.62381      1.88589      2.58086         0.325085      0.104009     -0.032134
O      11.75366      1.94787     14.99391         0.243576     -0.340799      0.019620
O      11.68196     13.61784      2.59318         0.049852      0.187181     -0.177832
O      11.68624     13.59414     14.99393         0.456513      0.357562     -0.156756
O      11.63396      2.08335      6.68623         0.336077     -0.481397      0.355378
O      11.63615     13.68164      6.74924         0.189901     -0.424358      0.297560
O      11.69871      1.90135     10.80411        -0.696561     -0.107769      0.082421
O      11.73304     13.55141     10.64830         0.067008     -0.199562      0.357354
O      11.66269      5.82381      2.56207        -0.828336     -0.040093      0.101539
O      11.71758      5.73212     14.97100         0.073565      0.344484      0.305941
O      11.62401      5.84330      6.70037         0.237277     -0.178127     -0.125079
O      11.67576      5.77424     10.89522         0.274839      0.296457      0.158600
O      11.73102      9.67231      2.54370        -0.825917      0.000263      0.176657
O      11.68973      9.76323     15.02768         0.392885     -0.446561      0.213314
O      11.69085      9.66870      6.63554         0.284943      0.296105     -0.380851
O      11.71591      9.70581     10.81655         0.162678      0.252590      0.456773
O       1.91564      3.93008      2.46849         0.208467     -1.801757      0.235228
O       1.90813      3.87151     15.02711         0.496304      0.099300     -0.602437
O       1.76184      0.02153      2.40340         0.092239      0.667966      0.412926
O       1.93974     15.53143     14.85427        -0.426372      0.973176     -0.068845
O      13.43501      3.89140      2.68335         0.424994     -0.435424     -0.593732
O      13.72463      3.78883     14.82936        -0.308921      0.771515      0.462857
O      13.66171     15.58174      2.53076        -0.082474      0.410805     -0.022135
O      13.73096     15.48223     15.04943        -0.288623      0.993220     -0.641461
O       1.89813      3.85393      6.68005        -0.184929      0.319000      0.201565
O       2.01583     15.54263      6.68170        -0.300145      0.483781     -0.123125
O      13.59355      3.89060      6.84302         0.428922      0.551399     -0.118751
O      13.64280     15.56142      6.82901        -0.474619      0.516114     -0.038017
O       1.90979      3.91870     10.81798         0.283928     -0.203253      0.221574
O       1.84443     15.57868     10.82388         0.409648      0.425869      0.160812
O      13.57034      3.88819     10.85548         0.207373      0.084374     -0.065750
O      13.70056     15.57691     10.70432        -0.234616     -0.737269      0.305507
O       1.86550      7.80207      2.52503         0.356394     -0.474947     -0.153986
O       1.96574      7.86127     14.98478        -0.848176     -1.249732      0.145854
O      13.58027      7.66141      2.50252         0.531334      0.643430      0.151704
O      13.70223      7.72758     14.96851        -0.187899     -0.051311      0.221881
O       2.09687      7.82179      6.56981        -0.487180     -1.151009      0.066744
O      13.59939      7.80778      6.67214         0.241518     -0.496805      0.172062
O       2.10482      7.84814     10.82920        -0.468667     -0.794005     -0.148324
O      13.59062      7.77773     10.94046         0.366056     -0.493010     -0.217589
O       1.97712     11.76839      2.42919        -0.784016     -0.503049     -0.252992
O       2.05552     11.71013     14.93211        -0.505757     -0.206830      0.440880
O      13.57544     11.60616      2.44912         0.358130      0.767871      0.342400
O      13.68148     11.67763     15.04267        -0.366171     -0.090685     -0.007232
O       1.93939     11.73149      6.58323        -0.345449     -0.763756      0.356352
O      13.55749     11.63439      6.56084         0.497468      0.007831      0.145797
O       1.89333     11.66038     10.67778        -0.008420     -0.635964      0.564430
O      13.82797     11.52494     10.84432        -0.580088      1.475208      0.214829
O       5.86354      3.84510      2.36669        -0.363958      0.181323      0.277011
O       5.72971      3.93793     14.96040         0.085304     -0.237864     -0.094143
O       5.91166      0.02405      2.51721        -0.045835     -0.525671      0.046279
O       5.81975     15.58968     15.08055         0.337614     -0.959320     -0.403085
O       5.90168      3.86111      6.73455        -0.032810      0.821671     -0.062741
O       5.76717     15.58170      6.40874         0.278812     -0.022033      0.848627
O       5.92789      3.80147     11.14348        -0.158987     -0.137268     -0.764573
O       5.81967     15.56189     10.89449        -0.103142      0.229593     -0.103502
O       5.69553      7.81007      2.42504         0.175449      0.314300      0.264465
O       5.87019      7.85917     14.99740        -0.025003     -0.575723     -0.145131
O       5.66079      7.71335      6.62759         0.854648      0.295889      0.104898
O       5.90392      7.77381     10.79721         0.437061      0.125731      0.607357
O       5.65250     11.69186      2.42277         0.701483      0.201462      0.498500
O       5.80650     11.70807     14.88226         0.077149      0.491301      0.311843
O       5.93719     11.72823      6.67396        -0.021791     -0.883808     -0.073374
O       5.92436     11.76211     10.63276        -0.100841     -0.257663      1.025026
O       9.70251      3.83774      2.41231        -0.023880      1.055614      0.447531
O       9.67076      3.86960     14.98438         0.296773      0.261530     -0.104200
O       9.67972      0.02807      2.51084        -0.109387     -0.914417     -0.086356
O       9.68154      0.03399     15.11274         0.227986     -0.411062     -0.445138
O       9.65404      3.98824      6.49790        -0.040114     -0.514403      0.473971
O       9.80116      0.03669      6.77444        -0.005658     -0.171157     -0.275955
O       9.78905      3.87344     11.02938        -0.210416     -1.269179     -0.371426
O       9.81498     15.50687     10.76522        -0.017495      0.985586     -0.134468
O       9.68763      7.85690      2.48916         0.083512     -0.565985      0.177181
O       9.72956      7.83651     15.14480         0.151201     -1.390685     -0.126346
O       9.81224      7.74917      6.75588        -0.877861     -0.050956     -0.499547
O       9.67563      7.78525     10.80466         0.352931     -0.269754      0.472355
O       9.75875     11.68009      2.48582         0.306826     -0.396404      0.702616
O       9.75240     11.70411     14.91757         0.072826      0.212178      0.466923
O       9.62110     11.62409      6.68867         0.633504      1.423969     -0.311760
O       9.76157     11.66636     10.76773        -0.066776      0.737744      0.428177
