  # total energy = -7880.81401436 
CRSYTAL
PRIMVEC
    15.6080000000000005    0.0000000000000000    0.0000000000000000
     0.0000000000000000   15.6080000000000005    0.0000000000000000
     0.0000000000000000    0.0000000000000000   16.6239999999999988
PRESSURE
-0.477832 -0.400024 -0.484632 -0.044529 -0.031405 -0.077965
PRIMCOORD
320 1
Pb       3.77382      3.82707      4.09700         0.256845     -0.013430     -0.139763
Pb       3.75035      3.75172      0.00378        -0.136474     -0.173048      0.085958
Pb       3.92630     15.44077      4.29656        -0.103409      0.403979     -0.288352
Pb       3.97732     15.57627      0.09521        -0.474163      0.038107     -0.507889
Pb      15.54652      3.85411      4.14947        -0.357506      0.106627     -0.359244
Pb      15.56233      3.96534     16.58199         0.220842     -0.880874      0.211553
Pb       0.11826     15.60423      4.26765        -0.223336      0.089312     -0.334385
Pb       0.00672     15.54003      0.02284         0.464336      0.412874     -0.123949
Pb       4.01318      4.04437      8.33297         0.219425      0.173204     -0.191259
Pb       3.88434      0.09188      8.50436         0.019184     -0.503933     -0.242765
Pb       0.10783      3.93657      8.21899        -0.767936      0.105512      1.029195
Pb       0.03994      0.09429      8.32033         0.100776     -0.734288      0.496544
Pb       3.94675      3.95094     12.30060        -0.660428     -0.215760      1.358696
Pb       3.91054      0.07735     12.31487        -0.444883     -1.352645      0.540545
Pb      15.50460      3.73883     12.25844        -0.048559      0.915963      0.483067
Pb      15.41848     15.59223     12.34732         1.076702     -0.470019      0.113614
Pb       3.90892      7.68126      4.25429        -0.346254      0.566836     -0.356041
Pb       3.83381      7.82754      0.01256        -0.512490      0.291347      0.319024
Pb      15.53806      7.77149      4.09283        -0.149859     -0.048787      0.487131
Pb       0.02561      7.79338      0.02790        -0.054886      0.073144     -0.440550
Pb       4.00279      7.86058      8.24629        -0.634683     -0.356173     -0.091787
Pb       0.16923      7.86271      8.04476        -0.344396      0.160678      0.670057
Pb       3.74781      7.83921     12.50777         0.081291     -0.006419     -0.157935
Pb       0.02885      7.74920     12.39895         0.201905     -0.041416     -0.271951
Pb       3.99889     11.62143      4.28070        -0.093549     -0.099649     -0.468980
Pb       3.91253     11.64088     16.57466        -0.281829      0.173144     -0.624474
Pb       0.07104     11.73758      4.23379        -0.333516     -0.072779     -0.095030
Pb       0.04447     11.66815      0.02451         0.136772      0.222749     -0.387654
Pb       3.89071     11.47575      8.27555         0.011027      0.773578      0.662660
Pb      15.50458     11.72510      8.38984         0.053260     -0.089075     -0.554569
Pb       3.77966     11.76753     12.61479         0.085757      0.255992     -0.470353
Pb      15.39547     11.66319     12.40900         0.569748      0.000646      0.217544
Pb       7.81504      4.06729      4.11870        -0.157272     -0.912079      0.091653
Pb       7.67971      3.68840      0.09679        -0.021465     -0.005759     -0.544875
Pb       7.79879      0.03987      4.12890         0.449419     -0.447812     -0.194573
Pb       7.80817     15.38279     16.57016        -0.241931      0.596278      0.666470
Pb       7.82827      3.99558      8.11060         0.143258     -0.542496      0.517811
Pb       7.72823     15.55155      8.41476         0.908938      0.094432      0.217396
Pb       7.76088      4.17619     12.44765         0.505931     -1.749135      1.365916
Pb       7.81691      0.12023     12.46515         0.453554     -0.305632     -0.466256
Pb       7.66501      7.76638      4.04199         0.274308      0.478297      0.138104
Pb       7.92570      7.71947     16.61052        -0.196259      0.329659     -0.064291
Pb       7.72474      7.79329      8.43321         0.550279      0.015528     -0.574294
Pb       7.72643      7.92455     12.57870         0.451347     -0.202874      0.019216
Pb       7.73623     11.68826      4.12415         0.287111      0.242033     -0.524258
Pb       7.88786     11.49851      0.02620        -0.252882      0.220385      0.086777
Pb       7.65656     11.59333      8.41778         0.474750      0.102305      0.321330
Pb       7.70259     11.71797     12.55715        -0.329672      0.264174     -0.247866
Pb      11.57179      4.03239      4.03711         0.588363     -0.445442      0.153207
Pb      11.65844      3.68588     16.37878         0.470680      0.945796      1.168261
Pb      11.95370      0.21876      4.20216        -0.951607     -0.687383      0.006314
Pb      11.75888     15.56752      0.04973        -0.203005     -0.436240      0.113689
Pb      11.71190      3.67415      8.08739        -0.443905      0.204675      1.092189
Pb      11.71559     15.38301      8.23792        -0.589512      0.635149      0.534536
Pb      11.55592      3.93899     12.39602         0.166132     -0.297029     -0.472170
Pb      11.88787      0.00380     12.54502        -0.812718     -0.282097     -1.113833
Pb      11.67425      7.91509      4.09549         0.261454     -0.020073     -0.112729
Pb      11.66726      7.73038     16.55343         0.154367      0.089978      0.081128
Pb      11.72810      7.77717      8.15058        -0.509888      0.611815      0.377382
Pb      11.90359      7.51292     12.40600        -1.095464      1.129281      0.321381
Pb      11.50204     12.05483      4.14581         0.607770     -0.496099      0.210549
Pb      11.76685     11.77750      0.00999        -0.144230     -0.125597      0.522799
Pb      11.59501     11.51041      8.09548         0.277828      0.186637      0.536080
Pb      11.60910     11.55610     12.47340         0.023797     -0.178822     -0.236554
Ti       1.92319      1.88835      2.17553        -0.208198     -0.122421     -0.833571
Ti       2.00924      1.91773     14.45511        -1.204747     -0.059356      3.044765
Ti       1.89824     13.61891      2.23451         0.216800      0.510561     -0.160614
Ti       1.90630     13.80563     14.62457         0.338404     -1.329295     -0.170757
Ti      13.67617      2.00635      2.15173         0.100184     -0.088961      0.859267
Ti      13.69343      1.85412     14.63529         1.816381      0.432323     -0.029737
Ti      13.67334     13.71668      2.29640        -1.181046     -0.735733     -0.399545
Ti      13.62329     13.65425     14.75971         0.461860     -0.724210     -1.030477
Ti       2.12513      1.93554      6.46070        -0.789567     -0.450329     -0.117797
Ti       2.00362     13.66802      6.45727        -0.326618     -0.202136      0.324867
Ti      13.77979      1.88709      6.47226        -1.454538      0.426579     -0.887832
Ti      13.65703     13.65136      6.39990        -0.191325     -1.010045     -0.810677
Ti       1.95505      2.06439     10.43250        -1.260139     -1.148766      0.022279
Ti       1.84371     13.65903     10.46607         0.647071     -0.190977      1.632019
Ti      13.59702      1.92503     10.42440        -0.445252     -0.084604      0.542702
Ti      13.61296     13.51573     10.41773        -0.963662      1.323191     -0.320306
Ti       1.93694      5.86104      2.27365        -0.383974     -0.101087     -0.644568
Ti       1.82535      5.80853     14.69839         0.700421      0.381761     -0.812760
Ti      13.64374      5.84369      2.24015        -0.752466      0.139159     -0.554617
Ti      13.61571      5.76867     14.66739        -0.289617      0.360668     -0.161377
Ti       1.88791      5.73571      6.37914         0.527389      2.208930     -0.435543
Ti      13.51162      5.79262      6.48283         1.638971      0.503178     -1.044301
Ti       2.00819      5.86352     10.48755        -2.164315      0.823732     -0.559258
Ti      13.65633      5.87348     10.41477         0.588147     -0.970187      0.012787
Ti       1.93432      9.75728      2.27401         1.099857     -0.149660     -0.206776
Ti       1.84902      9.78486     14.62760         0.458496      0.379727      0.482903
Ti      13.76165      9.81909      2.14077        -1.685130      0.223641      0.601238
Ti      13.58427      9.74277     14.69583         0.172307     -0.032626     -0.029022
Ti       1.97474      9.88349      6.33353        -0.442514     -1.547775     -0.153532
Ti      13.68412      9.78951      6.19542        -0.034178     -0.372981      0.654563
Ti       2.01048      9.76771     10.50806        -0.592087     -0.060561      0.077098
Ti      13.66197      9.71312     10.43051        -0.458363     -0.023258     -0.357342
Ti       5.77713      1.90697      2.28251         0.369819      0.048776     -0.156081
Ti       5.79836      1.87107     14.69282        -0.070039      0.222565      0.465465
Ti       5.73693     13.69319      2.21136         1.096006     -0.900974      1.022911
Ti       5.81492     13.66958     14.68958        -0.848322     -0.786619     -1.009355
Ti       5.89295      1.85115      6.39425         0.414412      1.000975     -0.885732
Ti       5.85685     13.62630      6.50764        -0.710990     -0.284384     -0.938736
Ti       5.80452      1.90458     10.53296         1.329943     -0.303046      0.391600
Ti       5.76533     13.58223     10.48924         0.328473     -0.408128      2.093500
Ti       5.74739      5.75590      2.13717        -0.100226      0.895286      1.747688
Ti       5.65908      5.78150     14.84136         0.586641     -0.347435     -0.987465
Ti       5.80815      5.85148      6.24457         0.247465     -0.099562      0.163891
Ti       5.85339      5.81829     10.69380        -0.453345      1.351790     -1.692971
Ti       5.79031      9.70192      2.19602         0.295712     -0.092903     -0.270604
Ti       5.77358      9.59763     14.72714         0.191477      1.631337     -1.213796
Ti       5.94272      9.73181      6.37788        -0.737948     -0.513051     -0.457091
Ti       5.86516      9.68451     10.62117        -1.031347      0.889632     -0.023807
Ti       9.72074      1.95641      2.19530         0.264572     -0.312482      0.368921
Ti       9.74168      1.83581     14.76145        -1.041115      0.169293     -1.837132
Ti       9.64699     13.69016      2.19158         0.734545     -0.216605      0.178485
Ti       9.65715     13.63196     14.71234         0.550039     -0.567281     -0.217624
Ti       9.73084      1.96571      6.21837         0.437782     -0.548117      1.027464
Ti       9.60999     13.68364      6.49820         1.083355      0.189892     -1.754207
Ti       9.71449      1.90615     10.46137         0.330698     -0.389992      0.336026
Ti       9.72906     13.53206     10.53751        -0.183369      1.290744     -0.697898
Ti       9.69698      5.91616      2.19596         0.720412     -0.356650     -0.272801
Ti       9.66917      5.75129     14.77092        -0.073255      0.666722     -1.005400
Ti       9.72121      5.87648      6.29576        -0.255038      0.946197      0.709254
Ti       9.67653      5.79771     10.42231         1.564798      0.474838      0.581622
Ti       9.76251      9.76074      2.31318         0.124895      0.151024     -0.442596
Ti       9.78857      9.78286     14.75135        -0.438574     -0.648598     -1.022946
Ti       9.62746      9.76756      6.30241         0.835468     -1.558386     -0.961756
Ti       9.73799      9.59733     10.63391         1.040330      0.118895     -0.157879
O       2.05425      1.84946      0.36239        -0.306754      0.036422      1.667731
O       1.88109      1.96763     12.75384         0.190426      0.262113     -1.782833
O       1.91319     13.77839      0.45830         0.053865     -0.373932      0.612498
O       1.93189     13.64700     12.83377        -0.071296     -0.121494      0.524958
O      13.79747      1.95995      0.40992        -0.605972     -0.015789     -0.926974
O      13.80082      1.71335     12.79868        -0.643431      0.339203      0.965764
O      13.67441     13.63226      0.45624        -0.146455      0.177204      0.351477
O      13.77210     13.80796     12.88990        -0.563591     -0.420727      1.270601
O       1.95597      1.88251      4.69027        -0.109310      0.292833     -0.326494
O       1.89288     13.66249      4.65335         0.436185      0.190379     -0.280434
O      13.58787      1.85494      4.67171         0.975652      0.252632      0.226675
O      13.48142     13.60113      4.55833         0.897561      0.380570      0.356255
O       2.03194      1.97981      8.63690        -0.032887     -0.142617      0.141691
O       1.77866     13.71722      8.73650         0.454486     -0.381441     -1.059160
O      13.54743      1.92375      8.66692         0.241525     -0.109008     -1.126814
O      13.63246     13.47703      8.60583        -0.009985      0.396301      0.520082
O       1.90815      5.87249      0.44946        -0.281879      0.239603      0.803662
O       1.79904      5.88031     12.88736         0.188896     -0.240998      0.767561
O      13.70079      5.80100      0.44811        -0.199096      0.129637     -0.109419
O      13.69422      5.74548     12.89507        -0.278156      0.293593     -0.442517
O       1.93359      5.82746      4.56617        -0.212538     -0.545665      0.394710
O      13.64555      5.78343      4.72057         0.017062      0.143381     -0.793309
O       1.99256      5.90659      8.68693         0.294769     -0.045179     -0.126674
O      13.59444      5.78967      8.67276         0.067142      0.240152     -0.402717
O       2.01615      9.77098      0.46814        -0.371066     -0.028259      0.237866
O       1.90407      9.69672     12.84648         0.107090      0.124263     -0.075596
O      13.72502      9.80246      0.32699        -0.042556     -0.258860      0.347314
O      13.40262      9.87616     12.91131         0.751345     -0.093929      0.307386
O       1.91491      9.83502      4.57311         0.427601      0.342260     -0.782216
O      13.63446      9.74850      4.43746         0.071260      0.088732      0.238838
O       1.92101      9.70432      8.71818         0.190197      0.185946     -0.668421
O      13.67006      9.71470      8.64204        -0.174312      0.260000      0.513603
O       5.74028      2.01238      0.50090        -0.005489     -0.137758     -0.208559
O       5.67093      1.68081     12.94907         0.567424      0.673320     -1.125878
O       5.83632     13.70706      0.48430        -0.252766     -0.102736     -0.909117
O       5.82296     13.68736     12.87774         0.054621      0.115313      0.053611
O       5.89358      1.99647      4.57804        -0.152202     -0.558192      1.013690
O       5.78346     13.71166      4.65966         0.114477     -0.244733      0.819666
O       5.77246      1.95630      8.78989         0.065376      0.254367     -1.000553
O       5.94018     13.60388      8.77698        -0.270888     -0.334709     -2.324563
O       5.60085      5.86815      0.40375         0.504195     -0.388620     -0.817587
O       5.68398      5.74627     12.97537         0.275971      0.098766      0.244421
O       5.80760      5.87128      4.44317        -0.050452     -0.239948      1.192086
O       5.80316      5.88968      8.86394        -0.037434     -0.414381      0.798873
O       5.67801      9.69814      0.38130         0.443621      0.454278     -0.225681
O       5.79357      9.73962     12.81788         0.059288     -0.625836      1.566458
O       5.90787      9.59441      4.59408        -0.062839      0.782769     -0.038070
O       5.94246      9.66951      8.77817        -0.280710     -0.048982     -0.268067
O       9.78734      1.83234      0.40532        -0.028164      0.428740     -0.265351
O       9.68427      1.78003     12.93911         0.192616      0.358316      1.031537
O       9.73366     13.58155      0.38504        -0.255252      0.367938      0.216285
O       9.59057     13.58425     12.93171         0.332130      0.138149     -0.050681
O       9.64120      2.11479      4.45121         0.129168     -0.729965     -0.054032
O       9.60509     13.61384      4.61660        -0.025374     -0.473870      0.643789
O       9.70985      1.94313      8.70602        -0.000479     -0.019370     -0.126010
O       9.77303     13.79022      8.67312        -0.091254     -0.734688      0.577311
O       9.70024      5.90590      0.39100        -0.105909      0.225240      0.094219
O       9.74782      5.70078     12.95782        -0.150087      0.072739      0.088450
O       9.74934      5.83314      4.52399        -0.220317     -0.187493     -0.333673
O       9.67116      5.99079      8.68535        -0.227472     -0.544252     -0.234145
O       9.55000      9.68924      0.50296         0.185673     -0.056374     -1.169023
O       9.85962      9.84475     12.92639        -0.458326     -0.019508      0.308416
O       9.52377      9.70111      4.48010         0.234801      0.226129      0.699743
O       9.75682      9.54836      8.87271        -0.344918      0.263481     -0.720707
O       3.84532      1.82110      2.58851         0.084852      0.087253      0.172637
O       3.84295      1.74985     14.98501         0.258921      0.559887     -0.226770
O       3.84785     13.88001      2.55505        -0.383804     -0.789671     -0.089630
O       3.92100     13.80344     15.04660        -0.906957      0.090475     -0.054185
O       0.00284      2.07507      2.48674         0.064894     -0.324919      0.485800
O       0.04365      1.92275     14.94322        -0.886218      0.459515     -0.177086
O      15.51116     13.56159      2.58370         0.848160      0.259631      0.109181
O       0.05359     13.46957     15.06839        -0.909109      0.635544     -0.194679
O       3.96490      1.89368      6.72664         0.538743      0.680499     -0.201025
O       3.90514     13.51699      6.79862         0.794590      0.618707     -0.096743
O       0.01427      1.88179      6.77287         0.318328      0.205768     -0.414852
O       0.09302     13.52510      6.68093        -0.947113      0.351843     -0.152282
O       3.79230      1.86321     10.81610         1.004898      0.580193     -0.294008
O       3.87572     13.69199     10.84468        -0.458862     -0.308505     -0.469504
O      15.60565      2.06541     10.64926         0.341434     -0.594696     -0.125823
O      15.48857     13.40646     10.74496         1.049686      0.365992      0.029771
O       3.83356      5.86730      2.64090         0.013446     -0.113909     -0.482528
O       3.74925      6.10303     15.08025         0.757481     -1.239032     -0.790778
O      15.49872      5.80137      2.54102         1.412530      0.052948      0.385065
O      15.54113      5.77991     15.05395        -0.025282      0.244817     -0.034783
O       3.89788      5.86839      6.71399         0.361477     -0.626896     -0.387670
O       0.00805      5.86573      6.76278         0.391144     -0.307443     -0.447138
O       3.79182      5.86841     10.96632         1.818066     -0.156277     -0.303586
O      15.58245      5.83116     10.67682        -0.563352     -0.187354      0.404287
O       3.85932      9.60790      2.55685         0.237762      0.823078      0.441094
O       3.82377      9.82490     14.92493         1.093997     -1.037577      0.122154
O       0.05780      9.83963      2.45304        -1.173274     -0.373752      0.208091
O      15.57683      9.87486     14.97179        -0.649658     -0.056121     -0.144500
O       3.95850      9.84691      6.59650         0.339075     -0.480302      0.255969
O       0.02349      9.89645      6.43019        -0.430794     -0.189929      0.706257
O       3.87083      9.60258     10.72925         0.252529     -0.226970      0.343513
O      15.58773      9.80358     10.84006        -0.662796     -0.079469     -0.016714
O       7.73899      1.98974      2.38459         0.646589      0.146529      0.316910
O       7.79242      2.00106     15.01455         0.061125     -0.118363      0.223508
O       7.76493     13.54020      2.46585        -0.072160      0.408453      0.251791
O       7.69671     13.58472     15.00805         1.462936      0.291233      0.239604
O       7.87131      1.95207      6.67940        -1.350169     -0.041018     -0.016445
O       7.79448     13.62508      6.82241        -1.305860     -0.128584     -0.052100
O       7.68249      1.99793     10.87203         0.181999     -0.274394     -0.045132
O       7.77074     13.49197     10.77584         0.163847      0.355029      0.190600
O       7.74331      5.71068      2.49908        -0.276482      0.605224     -0.634670
O       7.70665      5.76064     14.98717        -0.034964     -0.097960      0.279677
O       7.76918      5.83262      6.60663        -0.157233     -0.125957     -0.187649
O       7.81585      5.76088     10.90633        -1.129814      0.745015     -0.537678
O       7.75476      9.75009      2.43502        -1.163793      0.079493      0.342684
O       7.77798      9.79423     14.86991        -0.688885     -0.143960      0.477860
O       7.78409      9.66588      6.81449        -0.383502     -0.149550     -0.083288
O       7.75931      9.71805     10.88868         0.362388     -0.130251      0.361829
O      11.74264      1.96285      2.47236        -0.692603     -0.169257     -0.018977
O      11.72624      1.80998     14.91481         0.164981     -0.219526      0.170189
O      11.66963     13.68492      2.52238         0.021239      0.128659     -0.227860
O      11.68781     13.69757     15.04733         0.163488      0.355291     -0.249861
O      11.64869      1.85346      6.60278        -0.037990     -0.167315     -0.034569
O      11.72501     13.73242      6.60911        -0.662190     -0.857024      0.228220
O      11.69635      1.97499     10.81456        -0.107200     -0.625788      0.231529
O      11.69947     13.80347     10.83020        -0.022510     -0.427461      0.035774
O      11.66044      5.86112      2.49617         0.045584      0.312070      0.095118
O      11.67101      5.80617     14.99598         0.547296      0.158880      0.090249
O      11.68429      5.78314      6.69182        -0.598363      0.542527     -0.117905
O      11.67203      5.83297     10.74723         0.454149     -0.023599      0.373665
O      11.62497      9.52605      2.38511         0.312276      0.422079      0.109256
O      11.62404      9.71369     15.11220         0.729127      0.043679      0.111942
O      11.54924      9.65269      6.56238         0.981493      0.331685      0.146563
O      11.65502      9.64737     10.86264         0.687453      0.300843     -0.135163
O       1.95558      3.86355      2.39451         0.297130      0.266984      0.718793
O       2.00936      3.89222     15.04517        -0.152704      0.109353     -0.626338
O       1.72382     15.58948      2.61895         0.349150     -0.041293     -0.210870
O       1.76295      0.04036     14.88163         0.339036     -0.469638     -0.099818
O      13.63574      3.88394      2.57890        -0.042982      0.457526      0.116243
O      13.59682      3.78676     14.81651         0.022857      0.145575      0.487380
O      13.68060      0.06255      2.58362         0.282058     -0.580868     -0.289098
O      13.75996     15.54073     15.15689        -0.509662      0.544376     -0.625234
O       1.89950      3.90237      6.74618         0.716240     -0.472971     -0.560405
O       2.09707      0.02630      6.78307        -0.571712     -0.492435     -0.291806
O      13.63995      3.85438      6.63792         0.366930     -0.406646      0.363105
O      13.69248     15.50509      6.73742         0.427552      0.976519     -0.114591
O       1.97236      3.94840     10.61239         0.165992     -0.866931      0.592047
O       1.83521     15.55782     10.73777         0.015317      0.382966     -0.297676
O      13.64423      3.79118     10.80272        -0.209444      1.300026      0.097637
O      13.78333     15.55445     10.71340        -0.346524      0.172746     -0.279039
O       1.87894      7.78765      2.64278        -0.210278     -0.210619     -0.489661
O       1.79809      7.85066     15.00683        -0.176750     -0.239229      0.044932
O      13.64650      7.84710      2.56977         0.481555     -0.795866     -0.331734
O      13.58766      7.79702     14.83092         0.268494     -0.210820      0.542066
O       2.07064      7.86675      6.58586        -0.477087     -0.324880      0.219793
O      13.72541      7.88193      6.60457        -0.421449     -0.593665      0.025447
O       1.86053      7.74455     10.87234         0.147389      0.529410      0.045574
O      13.67702      7.82815     10.82530        -0.103452     -1.028728     -0.068238
O       1.87999     11.72656      2.56779         0.776627      0.309695     -0.081260
O       2.06681     11.72541     14.95193        -0.198626     -0.082585      0.172761
O      13.48580     11.64793      2.49892         0.470128      0.183886     -0.255897
O      13.47096     11.73337     14.97585         0.517242     -0.018182     -0.074119
O       2.11223     11.71384      6.71312        -0.626664      0.278539      0.043142
O      13.57092     11.68530      6.65981         0.065026     -0.383288     -0.198325
O       2.05932     11.63279     10.75704        -0.305924      0.588667      0.172381
O      13.57755     11.66604     10.69283        -0.366005     -0.509849      0.569433
O       5.69659      3.89966      2.54964         0.078079     -0.224347     -0.241589
O       5.70336      3.82119     15.04111        -0.214828      0.778587      0.046435
O       5.92619     15.56939      2.54940        -0.216969      0.641743      0.197943
O       5.90020      0.05735     15.11885         0.225260     -0.861161      0.154667
O       5.92374      3.91075      6.73099        -0.705553     -0.179461     -0.292850
O       5.80922     15.54708      6.76379         0.298674      0.809632     -0.065210
O       5.80310      3.88664     10.93279        -0.513117     -0.062956     -0.298285
O       5.74206     15.53605     10.58130         0.369263      1.059051      0.847500
O       5.78758      7.79801      2.48610         0.301784     -0.716042     -0.074250
O       5.84897      7.75459     15.03720        -0.059676      0.459495     -0.320948
O       5.81988      7.75666      6.61709         0.061745     -0.122590      0.266051
O       5.79474      7.73853     10.90996         0.526787     -0.405770      0.327977
O       5.78123     11.70556      2.58316        -0.563590     -0.177708      0.029892
O       5.73221     11.78012     14.86121        -0.003453     -0.959059      0.652461
O       5.90908     11.65196      6.66951         0.208248      0.213910      0.101631
O       5.72975     11.59750     10.80739         0.234279      0.434582      0.101562
O       9.78629      3.91795      2.44231        -0.413539     -0.293807     -0.104009
O       9.84014      3.88187     14.97897        -0.431139     -1.257269      0.291849
O       9.74956     15.54600      2.58953        -0.615967      1.202663     -0.386845
O       9.70706     15.51878     15.05012        -0.138614      0.602995     -0.067925
O       9.84558      3.92355      6.52535        -0.726643     -0.445394      0.448103
O       9.63720     15.53108      6.58340         0.100641      1.094762      0.001928
O       9.81259      3.88801     10.73623        -0.559996      0.236464      0.426481
O       9.65315      0.03998     10.78664        -0.364201     -0.361053      0.282574
O       9.63834      7.77047      2.66074        -0.138116     -0.684302     -0.840085
O       9.66149      7.78450     14.95406         0.071057     -0.089613      0.368406
O       9.69865      7.75307      6.68676         0.062705     -0.184437     -0.337169
O       9.70027      7.72468     10.94848        -0.418712     -0.357744      0.177261
O       9.78035     11.67676      2.46849        -0.250987      0.296021      0.276464
O       9.78172     11.70279     15.00876        -0.230408     -0.094319      0.347203
O       9.59970     11.57099      6.62948         0.376653      1.281025      0.520605
O       9.80872     11.70625     10.70238        -0.011691     -0.349465      0.360582
