  # total energy = -7881.80271130 
CRSYTAL
PRIMVEC
    15.6080000000000005    0.0000000000000000    0.0000000000000000
     0.0000000000000000   15.6080000000000005    0.0000000000000000
     0.0000000000000000    0.0000000000000000   16.6239999999999988
PRESSURE
-0.573769 -0.481143 0.043134 -0.145031 -0.093986 -0.030155
PRIMCOORD
320 1
Pb       3.92193      3.91589      4.13716        -0.294034     -0.582432      0.072036
Pb       3.94292      3.95216      0.02769        -0.456499     -0.419742     -0.288950
Pb       3.88361     15.59465      4.09709         0.081919      0.441068      0.005857
Pb       3.84371     15.58503     16.59498         0.210847      0.013824      0.092086
Pb       0.01293      3.86793      4.10885         0.006666     -0.128529      0.420838
Pb      15.55293      3.86600     16.61127         0.032323      0.178457     -0.053596
Pb      15.55832     15.59482      4.06650         0.186224     -0.295100      0.875945
Pb      15.56183     15.57165     16.60251        -0.118661      0.464517     -0.166723
Pb       3.82556      3.87562      8.30107         0.191404     -0.347983     -0.000616
Pb       3.88761      0.00747      8.30937         0.371022     -0.264912     -0.462057
Pb      15.57586      3.86057      8.27058        -0.002260     -0.250585      0.339163
Pb       0.03613     15.58479      8.25066        -0.609785     -0.303882     -0.021506
Pb       3.89766      3.90520     12.41298        -0.184756      0.190713     -0.002322
Pb       3.86564     15.54350     12.38129         0.058432     -0.459638      0.533074
Pb      15.58047      3.84099     12.44415         0.103756      0.339073     -0.285061
Pb      15.56272      0.07835     12.48231         0.221392     -0.388382     -0.077694
Pb       3.86493      7.80127      4.19708        -0.011826      0.101061     -0.013557
Pb       3.85409      7.76770     16.62008         0.382152      0.198681     -0.378611
Pb       0.05914      7.80995      4.15320        -0.192183      0.279413      0.022012
Pb      15.60664      7.77543     16.61681        -0.042866     -0.557503     -0.063916
Pb       3.95660      7.75832      8.19556         0.024201      0.337977      0.624858
Pb      15.53480      7.78595      8.34833         0.194679      0.056373      0.435317
Pb       3.89376      7.81364     12.45296        -0.155741     -0.005141     -0.437325
Pb      15.60711      7.81650     12.48002        -0.684603      0.195049     -0.041214
Pb       3.87091     11.68217      4.11273         0.195392      0.062636     -0.057030
Pb       3.89489     11.64430     16.54193         0.193625      0.476563     -0.024615
Pb      15.59019     11.67062      4.11752        -0.077068      0.378834      0.024974
Pb      15.57850     11.72336     16.57135         0.185552      0.176781      0.389598
Pb       3.85409     11.67005      8.22528         0.639866     -0.068466      0.221580
Pb      15.57792     11.66115      8.30188        -0.247375      0.390058     -0.045811
Pb       3.94255     11.68737     12.40347        -0.592583     -0.021374      0.226610
Pb       0.04780     11.63773     12.38717        -0.309604     -0.057919      0.344895
Pb       7.81885      3.85128      4.15003        -0.408954     -0.172004      0.047137
Pb       7.82171      3.92504      0.02817        -0.214138     -0.131994     -0.622322
Pb       7.80459     15.54513      4.07794        -0.396479      0.426601      0.472567
Pb       7.82997      0.04934      0.00488        -0.212708     -0.464722      0.077199
Pb       7.71690      3.91665      8.28637         0.829329      0.025254      0.133655
Pb       7.79752     15.56383      8.30824         0.505615     -0.105616     -0.117896
Pb       7.75581      3.86404     12.42866        -0.164009      0.245706     -0.356586
Pb       7.75567     15.58228     12.46533         0.066035     -0.383658      0.196983
Pb       7.76670      7.80829      4.14296        -0.295439      0.130886      0.087719
Pb       7.83179      7.85680     16.60544        -0.605529     -0.019219     -0.267695
Pb       7.79122      7.77696      8.27036        -0.500236      0.080582      0.167645
Pb       7.84323      7.71905     12.37393        -1.310537     -0.186528      0.910027
Pb       7.86151     11.68298      4.19337        -0.625326     -0.271265     -0.296205
Pb       7.76113     11.67571      0.00268        -0.261732     -0.066412     -0.220913
Pb       7.72656     11.71167      8.21604        -0.032269      0.021696      0.512637
Pb       7.76065     11.61781     12.42483        -0.005047      0.643577      0.247573
Pb      11.70602      3.91657      4.17133        -0.002147     -0.486028      0.802430
Pb      11.72280      3.95779      0.01026         0.100709     -0.460638     -0.579486
Pb      11.60574     15.56618      4.11405         0.656807     -0.187281      0.621453
Pb      11.64180     15.57504      0.01337         0.258774     -0.003720     -0.016800
Pb      11.73841      3.92725      8.28421        -1.328275      0.043667      0.783465
Pb      11.68500      0.03240      8.25413        -0.684378     -0.309003      0.344720
Pb      11.76239      3.86311     12.48019        -0.548927      0.205933      0.096233
Pb      11.77466     15.57202     12.43642        -0.649729     -0.183194     -0.176321
Pb      11.69076      7.66740      4.08522         0.383792      0.900838      0.144250
Pb      11.57562      7.77980     16.60142         0.153028     -0.036687     -0.103850
Pb      11.64873      7.84945      8.23213         0.012469     -0.439801      0.987531
Pb      11.64434      7.79385     12.49917         0.741287      0.081987     -0.109016
Pb      11.63618     11.58094      4.17278         0.582667      0.071094     -0.085739
Pb      11.73137     11.72122     16.57581        -0.610643      0.005369      0.163511
Pb      11.81490     11.75795      8.30697        -0.455999      0.124634     -0.058290
Pb      11.67215     11.74195     12.43590        -0.009015      0.063474     -0.496669
Ti       1.94918      2.02372      2.18590         0.137774     -0.469548     -0.294201
Ti       1.92573      1.99702     14.67385         0.407534     -0.287267      1.118113
Ti       1.88543     13.71901      2.19154         0.477054     -0.565079      0.448345
Ti       1.83345     13.64814     14.77114         1.565655      0.154085     -2.069460
Ti      13.63154      1.90602      2.30511         0.482307     -0.263367     -0.425537
Ti      13.66457      1.86582     14.60261        -0.570172      0.864945      1.019849
Ti      13.68022     13.61762      2.19874        -0.643328      0.732551     -0.121760
Ti      13.60291     13.58795     14.64675         0.346615      0.888054     -0.807297
Ti       1.89292      1.81703      6.33275         0.182402      0.899996     -0.567721
Ti       1.98179     13.62037      6.43528        -1.186962     -0.456317     -0.839288
Ti      13.53489      2.00356      6.44004         0.530112     -1.423932     -0.273041
Ti      13.58949     13.69884      6.41012         0.501433     -0.387707      0.000252
Ti       2.01711      1.82356     10.52449        -0.937852      1.124803      0.348069
Ti       1.88691     13.57333     10.51606         0.309961      0.095924      0.419220
Ti      13.57325      1.94385     10.43358         0.334606      0.396651      0.048859
Ti      13.65396     13.67327     10.54860        -0.408599     -0.278999     -0.176605
Ti       1.85450      5.89169      2.18460         0.214876     -1.014444     -0.607912
Ti       1.96612      5.86930     14.58261        -0.598402     -0.561459      0.676401
Ti      13.54931      5.74767      2.35038         1.454070      0.761108     -1.514519
Ti      13.69748      5.84834     14.71592        -0.265503     -0.623236     -1.751164
Ti       1.93829      5.77755      6.46535        -0.118454      0.366016     -0.896953
Ti      13.67148      5.86624      6.48966        -1.070680     -0.260611     -1.214301
Ti       1.73408      5.92520     10.55739         0.757437     -0.849293      0.868205
Ti      13.50493      5.88973     10.66782         0.321049      0.403075      0.721991
Ti       1.98017      9.77226      2.20062        -0.270772      0.231692     -0.524885
Ti       1.86218      9.72824     14.76120         1.112556      0.413602     -1.335826
Ti      13.63216      9.73443      2.03509        -0.165751     -0.174807      2.993242
Ti      13.65149      9.73078     14.79497        -0.451549     -0.387278     -2.017909
Ti       1.91957      9.69411      6.41185         0.273002     -0.163994     -0.201122
Ti      13.71859      9.67729      6.41401        -1.196460      1.138886     -0.361887
Ti       1.92718      9.72970     10.47933         0.217570     -0.401590      0.964464
Ti      13.64963      9.77927     10.41671        -0.203648     -0.963637      0.536231
Ti       5.84370      1.95279      2.23414        -0.176548     -0.433391      0.398324
Ti       5.75894      1.83447     14.76879         0.027614      0.395817      1.162060
Ti       5.80209     13.61945      2.25879        -0.152518     -0.110310     -1.237141
Ti       5.83369     13.61275     14.59961        -0.398048     -0.129913      1.504414
Ti       5.81993      1.94419      6.38809         0.378564     -0.842972     -1.387349
Ti       5.87721     13.68877      6.31312        -0.029602      0.088127      2.038519
Ti       5.83090      1.86183     10.47421         0.138529      0.596618     -0.019779
Ti       5.82702     13.61056     10.41582         0.719045      0.185575     -1.138116
Ti       5.68360      5.85697      2.20563         1.466370     -0.426826     -0.091124
Ti       5.82639      5.80462     14.67839        -0.149268      0.277303     -0.315288
Ti       5.83322      5.73438      6.35937         0.453570      1.081830      1.957913
Ti       5.68196      5.84943     10.44695         0.482462     -0.204425      0.095993
Ti       5.80720      9.68029      2.15107         0.774181      0.990196      0.141828
Ti       5.79856      9.75294     14.61872         0.149746     -0.220454      1.303554
Ti       5.83700      9.74237      6.29946         0.151881     -0.765846      0.684116
Ti       5.85234      9.77113     10.52889        -0.706236     -0.658073     -1.498274
Ti       9.77857      1.95734      2.26755        -0.417561     -0.936480     -0.511559
Ti       9.73659      1.85523     14.71154         0.296891      0.859287      0.135505
Ti       9.73646     13.59202      2.23163         0.178306      0.287070     -0.945377
Ti       9.70414     13.58289     14.71385        -0.028808      0.462281     -1.298752
Ti       9.65373      1.91689      6.45475         0.533146      0.225176      1.778661
Ti       9.68070     13.61908      6.31191         1.096422      0.925248      1.307328
Ti       9.66950      1.91629     10.62256         1.087698      0.045674     -2.462047
Ti       9.62308     13.66672     10.58540         0.713890     -0.243543     -0.278639
Ti       9.62741      5.78852      2.19106        -0.212634      0.368944      0.625435
Ti       9.76122      5.85235     14.71545         0.091765     -0.989940      0.123051
Ti       9.71499      5.91228      6.32854        -0.149695     -1.764014      1.203589
Ti       9.69817      5.90217     10.54381         0.232759     -1.386192      0.169402
Ti       9.67828      9.64069      2.24958         0.769903      1.059462     -0.668660
Ti       9.69496      9.75993     14.62938         0.281825     -0.256453      1.401072
Ti       9.72672      9.74113      6.45621         0.059263      0.196295     -0.800230
Ti       9.67583      9.71100     10.64574         0.791812      0.840023     -1.331915
O       1.86665      2.11038      0.39325         0.336257     -0.379009      0.762446
O       1.81011      1.79567     12.94910         0.610176      0.211051     -1.975863
O       2.00716     13.68722      0.43487        -0.262127     -0.257397     -0.987631
O       1.93942     13.64575     12.90255        -0.058489     -0.045478      0.745633
O      13.58393      1.86866      0.53851         0.246099      0.068675     -0.187578
O      13.49951      1.89749     12.83049         0.474687      0.368282      0.357487
O      13.66597     13.74437      0.39866         0.209672     -0.104171      0.008376
O      13.72736     13.59850     12.81015        -0.462291      0.004747      0.961917
O       2.04882      1.92387      4.56512        -0.388503     -0.243603      0.104022
O       1.70151     13.51934      4.65263         0.761606      0.171683      0.671100
O      13.57921      2.18530      4.67784         0.265326     -0.482022     -0.677752
O      13.76493     13.68878      4.65220        -0.136602     -0.399981     -0.270811
O       2.04150      1.87921      8.75925        -0.285958      0.033775     -0.084156
O       2.00726     13.62156      8.77055         0.015941     -0.026851     -0.699171
O      13.71047      1.98023      8.61461        -0.186815     -0.335523      1.508028
O      13.55961     13.61147      8.75745         0.086608      0.207978      0.668750
O       1.85671      5.70166      0.35716         0.030597      0.618366      1.389696
O       2.00460      5.92369     12.82727        -0.093937      0.039511      0.004701
O      13.78351      5.73851      0.56212        -0.482228      0.081722      0.061541
O      13.57452      5.91653     12.83451        -0.078771     -0.296172      1.636104
O       1.99037      5.91466      4.69038        -0.133932     -0.259856      0.307940
O      13.55104      5.82113      4.66455         0.062414      0.173544      0.163126
O       1.68149      5.93534      8.78799         0.407960     -0.433497     -1.366685
O      13.59834      5.80480      8.94747         0.236974     -0.009410     -3.117147
O       2.08686      9.66626      0.40005        -0.633261      0.203970      0.864279
O       1.98001      9.89896     12.95004        -0.231869     -0.499460      0.470307
O      13.89395      9.80725      0.32326        -1.149214     -0.164854     -0.600266
O      13.80517      9.80294     12.99732        -0.499319     -0.214638      1.015915
O       1.91684      9.59040      4.60267         0.059037      0.403999     -0.179568
O      13.50052      9.63864      4.64144         0.544242      0.285131     -0.025060
O       1.83451      9.70459      8.74610         0.346412     -0.224300     -0.968440
O      13.70582      9.72023      8.61189        -0.369705      0.118024      0.943333
O       5.75078      1.80412      0.46814         0.472817      0.216265     -0.560804
O       5.84867      1.90720     13.06173        -0.006144     -0.033572     -1.684880
O       5.69071     13.58042      0.43981         0.313325     -0.136967      1.212218
O       5.89304     13.73648     12.87413        -0.188249     -0.292247     -1.236160
O       5.93019      1.84558      4.56020        -0.421402      0.559236      0.673641
O       5.97017     13.53243      4.59078        -0.247794      0.298193     -1.493792
O       5.82899      1.86530      8.69660        -0.138265      0.247693      0.197787
O       6.02681     13.64280      8.50590        -0.798195     -0.292535      2.167590
O       5.64240      5.83589      0.43749         0.244531      0.035626     -0.175296
O       5.66816      5.78050     12.86033         0.389937      0.146807      1.017058
O       5.76459      5.73192      4.64569         0.136148      0.406161     -2.009042
O       5.83235      5.60477      8.64605        -0.268467      0.634801      1.380113
O       5.91442      9.85600      0.34810        -0.329246     -0.232549      1.018789
O       5.75589      9.81492     12.83886        -0.009417     -0.309122      0.084399
O       5.98525      9.56460      4.53946        -0.666723      0.095774     -0.259916
O       5.87188      9.80395      8.71544         0.025198     -0.151834      0.721954
O       9.74630      1.61613      0.48848         0.092656      1.088879      0.926577
O       9.75956      1.85883     12.91987        -0.130520      0.281371      0.109656
O       9.77619     13.65604      0.36685         0.202839     -0.210517      1.379562
O       9.76709     13.63262     12.85823        -0.105624     -0.241580      1.587453
O       9.76973      2.10643      4.74624        -0.104854     -0.006630     -2.534168
O       9.68702     13.59057      4.55391         0.084405      0.049716     -1.103433
O       9.79842      1.79372      8.73255        -0.693714      0.133989      1.965714
O       9.62896     13.79749      8.82180         0.208820     -0.436026     -0.151704
O       9.76943      5.83148      0.44829        -0.105611      0.137496     -0.747324
O       9.90001      5.82924     12.96343        -0.725405     -0.019546      0.205446
O       9.58422      5.78227      4.55506         0.710156      0.109319     -0.182932
O       9.70640      5.95112      8.80468        -0.130500      0.121588     -0.473218
O       9.77693      9.76048      0.46510        -0.311282     -0.113328      0.475509
O       9.62517      9.64264     12.88722         0.420333      0.395692     -0.749015
O       9.66718      9.67348      4.63024         0.339350      0.456491      0.398868
O       9.62319      9.62315      8.83667         0.042300     -0.035447      0.021196
O       3.95158      2.00848      2.53315        -1.102719     -0.201286      0.123015
O       3.83406      1.90507     15.04674         0.661290      0.095165      0.018024
O       3.78651     13.56190      2.67952         0.759124      0.152758     -0.052949
O       3.96295     13.36212     14.81880        -0.619727      0.371472      0.498903
O       0.01446      1.87358      2.55328         0.280405      0.639241      0.090129
O       0.03349      1.89617     14.96369        -1.013878     -0.015829      0.146619
O      15.59717     13.56785      2.57543         0.422744      0.675368     -0.388867
O      15.57466     13.71420     15.01649         0.179365     -0.360161      0.136930
O       3.92920      1.85412      6.63083        -0.501020      0.362008      0.468760
O       3.91945     13.64050      6.66808         0.050929     -0.266628     -0.227990
O      15.57312      1.73784      6.63381         0.639098      0.816295      0.023225
O       0.01387     13.60089      6.92713         0.244854      0.170604     -0.586331
O       3.92523      1.95537     10.79716        -0.889840     -0.277418      0.391751
O       3.97893     13.63405     10.69082        -0.844866     -0.173652      0.480880
O      15.55151      2.06842     10.89791         0.482564     -0.435107     -0.535893
O       0.01222     13.64112     10.81813         0.039000      0.106213     -0.300264
O       3.85476      5.77409      2.60800        -0.211513      0.254440     -0.277507
O       3.82136      6.03323     15.00881         0.693585     -0.557108     -0.196173
O      15.59612      5.92157      2.67042         0.190502     -0.203764     -0.207423
O      15.57161      5.83808     14.89932         0.694439      0.230837      0.264570
O       3.92280      5.76059      6.75616        -1.696756     -0.034359     -0.005773
O      15.51039      5.64575      6.64052         0.619028      0.446268      0.291626
O       3.82411      5.94356     10.70740         0.797183     -0.264150      0.001921
O      15.47708      5.87191     10.89735         0.822282     -0.207103      0.348327
O       3.95206      9.68224      2.59361        -1.325282      0.051549     -0.159254
O       3.88714      9.71990     15.00836         0.175378      0.340343     -0.208904
O      15.60567      9.68804      2.49316        -0.128187     -0.192856     -0.077976
O      15.60436      9.72919     15.07787        -0.593943      0.003390     -0.040545
O       3.88047      9.66860      6.67036        -0.641928     -0.090178     -0.032691
O      15.57136      9.69753      6.71386         0.585631      0.433910     -0.378872
O       3.89519      9.68452     10.75586        -0.402530      0.249618      0.260103
O      15.57775      9.67160     10.78937         0.176766      0.305247      0.144450
O       7.77066      1.89267      2.63742         1.242714     -0.093536     -0.605373
O       7.79476      1.84330     15.09917        -0.010944      0.174231     -0.127152
O       7.76674     13.70614      2.40844         0.261622     -0.209240      0.258829
O       7.84609     13.61508     14.94560         0.056601      0.386443      0.299716
O       7.80141      1.96718      6.71409        -0.850027      0.132597      0.124573
O       7.88112     13.64007      6.69111        -2.020472     -0.483869     -0.406245
O       7.74556      1.82825     10.90721         0.147734      0.533878     -0.090038
O       7.73137     13.56457     10.84623        -0.122321      0.539052      0.178837
O       7.75485      5.86820      2.54069         0.222688     -0.118440     -0.409340
O       7.76000      5.86126     15.04965        -0.389950     -0.286228     -0.254076
O       7.74701      5.80098      6.72920         0.653511      0.147926     -0.318015
O       7.79730      5.82141     10.91251        -0.958218     -0.206928      0.075334
O       7.76863      9.69375      2.50351         0.539249      0.051535      0.023519
O       7.86139      9.73806     15.05112        -0.534792     -0.133330     -0.202130
O       7.71273      9.61198      6.60670         1.595057      0.364705      0.510352
O       7.72221      9.70178     10.99334         0.523601      0.022657     -0.427633
O      11.74516      2.04064      2.72575        -1.056587     -0.451116     -0.739153
O      11.71002      2.04767     15.05905         0.172302     -0.411925     -0.264879
O      11.77443     13.78159      2.50089        -1.176529     -0.602310      0.117499
O      11.75605     13.59752     15.01945        -0.263985      0.208977     -0.249291
O      11.66284      1.83222      6.73642         0.338693      0.174632     -0.117264
O      11.62674     13.67292      6.66856         0.558608     -0.139019      0.098008
O      11.68585      1.80689     10.71793        -0.020001      0.186206      0.441236
O      11.66142     13.63031     10.89505         0.932553     -0.218755     -0.124489
O      11.68847      5.77326      2.56460        -0.599890     -0.208162     -0.085822
O      11.74508      5.68947     15.00934        -0.759390      0.326444      0.495157
O      11.63967      5.93593      6.80253         0.403428     -0.352804     -0.614387
O      11.61167      6.07061     10.91922        -0.442870     -0.721140     -0.096239
O      11.65393      9.95540      2.53492         0.574825     -0.731540     -0.538033
O      11.64352      9.66428     15.07168         1.011857      0.327063     -0.122498
O      11.68452      9.64634      6.74283        -0.925786      0.541269     -0.232004
O      11.69839      9.80864     10.87376        -0.367558     -0.235958     -0.081744
O       1.98178      3.89581      2.62970        -0.476865      0.371483     -0.241632
O       2.05543      3.89379     14.81155        -0.374431      0.627916      0.068189
O       1.98953     15.60462      2.39323        -0.084448      0.325613      0.470294
O       2.00180     15.56714     15.01100        -0.117507     -0.567476      0.300344
O      13.76544      3.86932      2.58070        -0.366481      0.345569      0.052140
O      13.84262      3.88780     15.03509        -1.028566     -0.616787     -0.365711
O      13.74160     15.58966      2.65043        -0.525309      0.541784     -0.237225
O      13.73330     15.60590     14.86327        -0.430141     -0.039393      0.224368
O       1.87568      3.76705      6.69021         0.302359      1.024604      0.307481
O       2.00351     15.53950      6.65759        -0.100317     -0.142456      0.364183
O      13.51437      3.83867      6.83202         0.609641      1.489248     -0.478093
O      13.65595     15.55134      6.69387        -0.090849      0.504853      0.248542
O       2.01422      4.04995     10.94391        -0.502841     -1.517250     -0.366998
O       1.98677     15.55872     10.77985        -0.098340      0.635031      0.125889
O      13.43788      3.94832     10.89468         0.478589     -1.436105     -0.145637
O      13.70523      0.03512     10.90081        -0.090674     -0.457681     -0.644723
O       2.01459      7.72388      2.46157        -0.160915      0.800279      0.211392
O       1.75558      7.80493     14.94329         0.642913     -0.007746      0.198665
O      13.44719      7.84577      2.39236         0.325667      0.208889      0.206336
O      13.50961      7.70181     15.03801         0.736126      1.295039      0.411651
O       1.78026      7.77966      6.65219         0.467736     -0.922841      0.466768
O      13.68158      7.78014      6.73569         0.068525     -0.998080      0.005981
O       1.83589      7.79865     10.98259         0.463094      0.666107     -0.426097
O      13.58778      7.82499     10.79495         0.222517      1.128548      0.349684
O       1.89206     11.69793      2.48256         0.289874     -1.309283      0.117487
O       1.85405     11.68780     15.11078        -0.068752      0.016063      0.009749
O      13.69055     11.78949      2.45702        -0.165160     -1.820176      0.135975
O      13.69354     11.74108     15.00072        -0.129281     -0.951278      0.226101
O       1.99591     11.61203      6.80654        -0.391749      0.373382     -0.537106
O      13.61551     11.70839      6.77504         0.064335     -0.512347     -0.340962
O       1.97635     11.64491     10.83203        -0.108387      0.514634     -0.244717
O      13.78771     11.65952     10.77741        -0.679388      0.521961     -0.053961
O       5.89900      3.85703      2.41029        -0.177398      0.766671      0.467457
O       5.77796      3.89288     15.08420         0.112577      0.507254     -0.194263
O       5.72729     15.55930      2.55426         0.249469     -0.691220      0.107687
O       5.68509     15.52594     15.00230         0.536853      0.069555      0.075012
O       5.89710      3.84688      6.64300        -0.468615     -0.239339      0.091300
O       5.87275     15.59498      6.59308         0.064537     -0.586529      0.044562
O       5.82744      3.80600     10.88081         0.040974      0.464758     -0.134202
O       5.78249     15.55427     10.78762         0.274766      0.333187      0.031982
O       5.85038      7.77115      2.48412        -0.329316     -0.424439      0.018814
O       5.79904      7.86327     15.16456         0.478788     -0.656142     -0.865267
O       5.77266      7.76010      6.80025         0.231725     -0.626967     -0.598243
O       5.80119      7.78769     10.73257         0.335750     -0.670018      0.078810
O       5.77675     11.60224      2.60155         0.337913      0.746134     -0.080394
O       6.08950     11.67399     14.90379        -0.768023     -0.449244      0.059100
O       5.83841     11.58720      6.54391         0.027831      1.254135      0.208649
O       5.90030     11.70996     10.75566        -0.337020     -0.101555      0.265788
O       9.67203      3.86629      2.34486         0.111876     -0.220236      0.456220
O       9.69364      3.86620     15.18766        -0.134826     -0.172810     -0.365234
O       9.81100      0.01040      2.66270        -0.358998     -0.093337     -0.229302
O       9.83893     15.57073     15.06425        -0.195943     -0.125180     -0.529024
O       9.79515      3.89764      6.88230        -0.291187      0.584559     -0.694103
O       9.58555     15.55935      6.65809         0.687128      0.296944     -0.265452
O       9.72373      3.88962     10.81871         0.027196     -0.743582      0.395122
O       9.66692     15.54535     10.94897         0.016558      0.744377      0.066768
O       9.82333      7.78223      2.41554        -0.045088     -0.309938      0.502394
O       9.66685      7.75741     15.04192         0.728530     -0.094496     -0.028565
O       9.68947      7.75229      6.66743        -0.082729      0.807093      0.048953
O       9.56718      7.75698     10.99814         1.064126      1.103601     -0.569480
O       9.71255     11.74888      2.64513        -0.035339     -0.082331     -0.482892
O       9.86041     11.65089     14.99290        -0.293612      0.425475     -0.168188
O       9.72356     11.73800      6.79374         0.079496     -1.690243     -0.513643
O       9.66177     11.66605     10.86184         0.118667     -0.495497      0.235709
