  # total energy = -7882.12910074 
CRSYTAL
PRIMVEC
    15.6080000000000005    0.0000000000000000    0.0000000000000000
     0.0000000000000000   15.6080000000000005    0.0000000000000000
     0.0000000000000000    0.0000000000000000   16.6239999999999988
PRESSURE
-1.37444 -1.45175 -1.80892 -0.34597 0.343165 -0.035981
PRIMCOORD
320 1
Pb       4.00367      3.86917      4.11201        -0.164362      0.427571      0.006564
Pb       4.08334      4.02901      0.14079        -0.115344     -0.037027     -0.395003
Pb       3.90643      0.02872      3.96960        -0.065616     -0.426000      0.236419
Pb       3.78686     15.57188     16.58443         0.409495      0.020708      0.095695
Pb       0.07310      3.83269      4.17208        -0.004224      0.149674     -0.319572
Pb      15.54314      3.78664     16.59835         0.260470      0.122470      0.222592
Pb      15.55779     15.49367      4.00038         0.227335      0.479668      0.274290
Pb      15.55528     15.57401     16.57115        -0.260416      0.075494      0.102714
Pb       3.66539      3.73057      8.30982         0.660688      0.388330     -0.167490
Pb       3.85839      0.03885      8.19488         0.002579      0.006420     -0.030846
Pb      15.47154      3.80461      8.29108         0.545712     -0.084710     -0.168796
Pb       0.02877     15.56539      8.22230         0.383165      0.172839     -0.446543
Pb       3.80416      3.89818     12.48428         0.271054      0.093258     -0.478070
Pb       3.83502     15.45509     12.44882         0.392936      0.444336     -0.114070
Pb       0.05988      3.93384     12.51324        -0.262568      0.038076     -0.341457
Pb       0.03312      0.24923     12.69787         0.011081     -0.324623     -0.435190
Pb       3.80076      7.89957      4.17529         0.034381     -0.326798     -0.322363
Pb       3.85069      7.75172     16.54926         0.009579     -0.249779     -0.017847
Pb       0.10457      7.89097      4.23774        -0.071536     -0.386952     -0.524168
Pb       0.00794      7.75337     16.57804        -0.145263     -0.145185     -0.437051
Pb       3.90109      7.68177      8.26492        -0.032199     -0.137871      0.162916
Pb      15.29564      7.71716      8.62679         0.558810     -0.232997     -0.570026
Pb       3.93447      7.83942     12.40999         0.196934     -0.521920     -0.504896
Pb      15.52760      7.93576     12.59137         0.225777     -0.325960     -0.012252
Pb       3.81325     11.70366      4.02823         0.375823     -0.145741      0.251620
Pb       3.85159     11.70301     16.52113         0.144851     -0.077565      0.346154
Pb      15.54504     11.66724      4.02689        -0.076618     -0.144502      0.195493
Pb      15.55042     11.80636     16.57027        -0.225354     -0.385032     -0.262431
Pb       3.82336     11.73462      8.13420         0.507203     -0.252400      0.530156
Pb      15.60064     11.62324      8.26589         0.156142      0.572187     -0.113337
Pb       3.97698     11.62958     12.31726        -0.208206      0.317044     -0.275101
Pb       0.18340     11.62701     12.39300        -0.125601      0.076254      0.137404
Pb       7.79929      3.66592      4.18795        -0.129397      0.350870     -0.104080
Pb       7.80381      4.00350      0.01283        -0.215297      0.439594     -0.209112
Pb       7.70790     15.46893      4.06275         0.423222      0.214580      0.044140
Pb       7.84872      0.17817      0.07823         0.135558     -0.261461     -0.329585
Pb       7.61749      3.90411      8.39538         0.165508     -0.270045     -0.365174
Pb       7.89098     15.58841      8.27391        -0.314394     -0.005180     -0.339676
Pb       7.73406      3.70934     12.42746        -0.174463      0.043728     -0.358640
Pb       7.65734     15.54446     12.52297         0.225081      0.249412     -0.694793
Pb       7.76247      7.84039      4.18135         0.162544      0.310029     -0.175939
Pb       7.66949      7.89629     16.58554         0.373537     -0.549288     -0.307617
Pb       7.83842      7.72493      8.20941        -0.145452     -0.067528      0.367690
Pb       7.76128      7.64084     12.43990        -0.131110      0.110982     -0.743790
Pb       7.94063     11.74530      4.26937        -0.437807     -0.390557     -0.584617
Pb       7.61829     11.75919     16.57907         0.529690      0.014034      0.027091
Pb       7.71041     11.75466      8.18595         0.113042     -0.015189      0.060884
Pb       7.73608     11.52957     12.39432        -0.364248      0.634538     -0.216148
Pb      11.87833      3.81867      4.38264        -0.199994      0.019280     -0.922338
Pb      11.78719      4.07589      0.20575        -0.425598     -0.241597     -0.525475
Pb      11.57272     15.43389      4.16322        -0.105944      0.269310     -0.400670
Pb      11.58042     15.50524      0.01314         0.085352      0.401795     -0.529250
Pb      11.73693      4.14212      8.48373         0.271739     -0.360975     -0.399317
Pb      11.66086      0.17363      8.32988        -0.049723     -0.330641     -0.390148
Pb      11.80533      3.82421     12.61763        -0.122517     -0.145507     -0.857311
Pb      11.67459      0.00477     12.43325        -0.324589      0.122483      0.110091
Pb      11.77665      7.67608      4.17324        -0.235174      0.263568     -0.328436
Pb      11.51491      7.81632      0.02137         0.174357     -0.475180     -0.284337
Pb      11.60704      7.86847      8.32970         0.094361     -0.217756      0.111405
Pb      11.44312      8.01064     12.67361         0.564125     -0.858242     -0.728858
Pb      11.79772     11.31122      4.23926        -0.176769      0.593626     -0.022628
Pb      11.70862     11.72451     16.52222        -0.439905      0.406909     -0.351753
Pb      11.94509     11.95794      8.53558        -0.489470     -0.339040     -0.308281
Pb      11.56008     11.88235     12.38708         0.471436     -0.559282      0.616273
Ti       1.94595      1.97281      2.11068        -0.646474     -0.285079      0.533535
Ti       1.96022      1.94356     14.79453         0.554507     -0.022559     -0.462814
Ti       1.88228     13.62929      2.11311         0.899190      0.444249      0.147763
Ti       1.95639     13.55166     14.72319         0.091037      0.716879     -1.083288
Ti      13.59897      1.89757      2.11645         0.205277     -0.610911      0.524056
Ti      13.51191      1.95096     14.71804        -0.954777     -1.076785      0.395559
Ti      13.56168     13.60095      2.18083        -0.238987      0.492000     -0.420691
Ti      13.63928     13.64613     14.57299        -1.186221      0.695539     -0.085286
Ti       1.97985      1.97468      6.13502        -0.897981     -0.764757      1.192769
Ti       1.96720     13.62281      6.33514        -0.526193      0.713507     -0.268597
Ti      13.65094      1.89054      6.27659         1.048119     -0.066376     -0.584014
Ti      13.64539     13.66153      6.30688         0.308716     -0.415959     -0.719166
Ti       1.94575      1.91138     10.53964         0.563820      0.222142     -0.709576
Ti       1.89703     13.72634     10.53902         1.178784     -0.955244     -0.259733
Ti      13.68925      1.81809     10.53821        -0.187732      1.224771      0.501184
Ti      13.82551     13.63712     10.61217        -0.576557      0.073794      0.090115
Ti       1.92528      5.80483      2.23430         0.250679      0.268965      0.095617
Ti       1.99559      5.74526     14.77744         0.150114      0.168325     -0.818861
Ti      13.65854      5.79683      2.17345         0.290502      0.484573      0.269730
Ti      13.68518      5.80445     14.64364        -0.109720      1.068276      1.274292
Ti       1.99463      5.84496      6.33974         0.086768     -0.451042     -0.563117
Ti      13.79696      5.76103      6.35785        -0.021741      0.103642      0.003623
Ti       1.93072      5.79146     10.40332         1.588369      0.308993     -0.177325
Ti      13.68120      5.80265     10.62916        -0.957738     -0.787174     -0.964799
Ti       1.89898      9.70819      2.08199         0.447463     -0.259562      0.229175
Ti       1.94489      9.72125     14.67595        -0.647701     -0.655140      0.237760
Ti      13.63246      9.64849      2.00668        -0.013675     -0.132725      0.498059
Ti      13.59384      9.79855     14.55438         0.596233     -1.228488      1.092795
Ti       1.91714      9.73258      6.33472         0.931391     -0.409587     -0.451123
Ti      13.65678      9.68333      6.49780        -0.292690      0.381298     -0.921684
Ti       1.96351      9.64482     10.47700         0.881727      0.020185     -0.607911
Ti      13.62278      9.73947     10.54662        -0.699535      0.446504      0.047594
Ti       5.84062      1.89184      2.16073         0.239378      0.148118      0.397426
Ti       5.78838      1.97224     14.75661         0.914040      0.032751     -1.074909
Ti       5.75658     13.64200      2.03577         0.836481     -0.099684      1.451918
Ti       5.81085     13.68225     14.57564         0.253336      0.421317      0.562364
Ti       5.82863      1.93717      6.35431         0.247157     -0.038792      0.405493
Ti       5.81436     13.71376      6.23471         0.349913     -0.528347      1.249747
Ti       5.84085      1.86964     10.48013         0.075634      0.714495      0.002483
Ti       5.85809     13.69157     10.37139         0.018398     -0.432384      1.559074
Ti       5.85772      5.89706      2.29094        -0.034152     -0.660736     -0.834907
Ti       5.87804      5.89624     14.50346         0.025219     -0.603537      1.927266
Ti       5.90445      5.79649      6.37914        -0.672923     -0.598807     -0.368682
Ti       5.87927      5.74571     10.38893        -0.559503      0.787601      0.720320
Ti       5.77832      9.79069      2.11791         0.626937      0.013127      1.069657
Ti       5.78672      9.80890     14.63484         0.530074     -0.751306     -0.104149
Ti       5.81435      9.75264      6.33757         0.094917      0.603670     -0.680397
Ti       5.84512      9.71280     10.34507        -0.085956     -0.453816      0.881868
Ti       9.72043      1.89486      2.26604         0.523338     -0.326228      0.254749
Ti       9.62493      1.95640     14.54050         1.602578     -0.808523      1.018085
Ti       9.69151     13.54398      2.12204        -0.119069      0.612744      0.926443
Ti       9.67378     13.64021     14.60418         0.663848      0.501589      0.275404
Ti       9.72416      1.95111      6.37053        -0.757982     -0.734792     -0.907343
Ti       9.77459     13.55067      6.35073         0.083362      0.574737     -0.612016
Ti       9.81858      2.01782     10.41228        -0.922712     -0.766051      1.293645
Ti       9.78410     13.64713     10.48288        -0.879571      0.865205     -0.123900
Ti       9.69218      5.78881      2.31139         0.111605      0.088973     -0.643334
Ti       9.78458      5.75953     14.54294        -0.682901      0.829894      0.533278
Ti       9.82354      5.74369      6.32775        -0.630396      0.363292      0.540455
Ti       9.82593      5.84070     10.47238        -0.823312      0.280559      0.260533
Ti       9.74504      9.73349      2.19509        -0.731154     -0.284024      0.448053
Ti       9.70212      9.74205     14.66696        -0.362982      0.210979      0.318134
Ti       9.73252      9.70700      6.42635        -0.052248     -0.129727     -0.556043
Ti       9.69883      9.81267     10.46218         0.100630     -0.952747     -0.956691
O       1.93818      1.94925      0.34835         0.057318     -0.320719     -0.834748
O       1.98835      1.99456     12.94327        -0.245086     -0.029440      0.053155
O       1.95459     13.63325      0.32381        -0.415042     -0.372089     -0.171605
O       2.08521     13.50411     12.93217        -0.296116      0.330697      0.294419
O      13.56701      1.83029      0.29531        -0.144121      0.214325      0.540437
O      13.58420      1.85027     12.90387         0.375223      0.408265      0.022336
O      13.68335     13.66070      0.34222         0.257008     -0.696690      0.608382
O      13.41405     13.55645     12.76217         0.697868      0.310697      1.210159
O       1.93739      1.99930      4.36891         0.056841     -0.145479     -0.473738
O       2.02685     13.59023      4.57078        -0.235250     -0.019247     -0.680190
O      13.72355      1.92316      4.46103        -0.275539      0.458834      0.617709
O      13.61106     13.53630      4.47448         0.067785      0.161791      0.621287
O       1.97753      1.77146      8.74645         0.121975      0.164046      0.497015
O       1.74804     13.64797      8.75120         0.282498      0.143780      0.297088
O      13.77106      1.91909      8.77048        -0.248162     -0.264707     -0.316537
O      13.80892     13.61263      8.79993         0.022810      0.127834     -0.003420
O       2.08993      5.86350      0.44172         0.033108      0.102945     -0.504049
O       1.95641      5.62158     12.97496        -0.057818     -0.184617     -0.490464
O      13.51878      5.81396      0.34236         0.212572     -0.287130      0.929316
O      13.77171      5.72699     12.88163         0.188269      0.106468     -1.371530
O       1.90393      5.79471      4.48570         0.025491     -0.213738      0.423914
O      13.80203      5.69910      4.54379        -0.322237      0.070196      0.201118
O       2.01324      5.93545      8.60210        -0.161379     -0.169468      0.854472
O      13.65916      5.73310      8.68775         0.452683     -0.175260      1.288051
O       1.98970      9.56919      0.29320        -0.216371      0.337655      0.227684
O       1.99883      9.80621     12.90315        -0.267841     -0.477045     -0.411883
O      13.53043      9.61834      0.23470         0.307489      0.387429      0.594007
O      13.70067      9.60142     12.77450        -0.225763     -0.055759     -0.835030
O       1.89751      9.73694      4.48157        -0.059547      0.081793      0.587876
O      13.60537      9.69289      4.64900         0.382115     -0.212154      0.919661
O       2.09420      9.45701      8.68087        -0.537234      0.805369      0.460448
O      13.68540      9.62708      8.70456         0.330632      0.331910      0.122395
O       5.89116      1.88310      0.39225         0.178640      0.076839     -0.726575
O       6.03580      1.93219     12.91238        -0.262835      0.123083      0.527070
O       5.86312     13.70589      0.28731        -0.084697     -0.439550     -0.423007
O       5.74164     13.65947     12.78649         0.313611     -0.022160      0.378014
O       5.89303      1.97539      4.57764        -0.309376     -0.062988     -0.835156
O       5.74552     13.71120      4.51574         0.019215     -0.318328     -1.470265
O       5.73728      1.98394      8.69502         0.226735     -0.389779     -0.415648
O       5.89782     13.61262      8.64722         0.006582      0.208201     -0.553733
O       5.83185      5.69685      0.38114         0.208052      0.732288      1.477663
O       5.88448      5.91437     12.76033         0.219335     -0.346596     -0.610393
O       6.00204      5.73908      4.53862        -0.356562      0.030271      0.391472
O       5.83380      5.85746      8.60725         0.266306     -0.473546     -0.223361
O       5.89212      9.64837      0.33441        -0.362627      0.121705     -0.244443
O       5.85495      9.84301     12.85501         0.014320     -0.234822      0.197869
O       5.90645      9.80974      4.53694        -0.309662     -0.477036      0.489720
O       5.79213      9.78401      8.59654         0.080772     -0.013362     -0.484793
O       9.72269      1.85445      0.49089        -0.039167      0.407986     -0.421377
O       9.66980      1.83566     12.79405        -0.088999     -0.007596     -0.624653
O       9.63841     13.40121      0.36335         0.177713      0.145167     -0.331906
O       9.88925     13.77529     12.82421        -0.035799     -0.458506     -0.330319
O       9.52852      1.64074      4.51739         0.875523      1.001699      1.745666
O       9.88865     13.62060      4.46784        -0.508691      0.015595      1.644624
O       9.77185      1.89776      8.64289         0.258479      0.201362     -0.856381
O       9.73457     13.40765      8.67679         0.103821      0.280846      0.170073
O       9.85247      5.80678      0.45968         0.179996     -0.527049      0.431488
O       9.64677      6.03775     12.76337         0.677119     -0.151560      0.325174
O       9.69903      5.82630      4.55227         0.307551      0.170970      0.170614
O       9.82324      5.69907      8.65486         0.487528      0.147582      0.379601
O       9.70108      9.77748      0.40520         0.357114     -0.014347      0.007748
O       9.78076      9.51371     12.86831        -0.742400      0.670944     -0.082569
O       9.76473      9.54837      4.57728         0.039864      0.519339      0.586464
O       9.67149      9.87012      8.65579         0.264173     -0.194718      0.477463
O       3.88236      1.79348      2.35998        -0.157734      0.252443      0.278830
O       4.00234      1.80268     15.02721        -1.411019      0.001138     -0.095003
O       3.91633     13.85287      2.39373        -1.224511     -0.734767     -0.075128
O       3.84778     13.58098     14.97366         0.652577      0.069949      0.161698
O      15.55154      2.00791      2.30702        -0.017807      0.011374      0.269342
O       0.01136      1.82577     15.00279        -0.092257      0.601600     -0.275717
O       0.04268     13.53836      2.46387        -0.539642     -0.293768      0.033699
O      15.56297     13.65287     14.88735        -0.300139     -0.479109      0.009922
O       3.87465      1.96515      6.50808         0.318029     -0.491431      0.378851
O       3.91385     13.54604      6.63048        -0.639049      0.413455      0.273820
O       0.07299      1.92149      6.49507        -0.725591     -0.363350      0.447832
O      15.57533     13.72442      6.59708        -0.090690     -0.354797     -0.056461
O       4.01497      1.88253     10.85329        -1.612645      0.269031      0.347323
O       3.91554     13.76096     10.71752        -0.478398     -0.358485     -0.033639
O       0.01436      1.92361     10.85332         0.511005      0.101910      0.390911
O       0.10395     13.65742     11.10710        -0.966386      0.152383     -0.488324
O       3.89105      5.91074      2.58096         0.709598     -0.265151     -0.060883
O       3.96022      5.87940     14.92352         0.077055      0.180433      0.145928
O       0.02961      5.74655      2.44501        -1.041467      0.016111     -0.260089
O       0.09691      5.76397     15.09353        -0.667769     -0.891185     -0.046199
O       3.90919      5.58095      6.67386         0.336638      0.812527     -0.508670
O       0.09366      5.70503      6.64736        -0.541271      0.293218      0.123843
O       3.98351      5.75580     10.78137        -0.713206      0.073853      0.152969
O       0.08749      5.60233     10.72471        -0.240767      0.701025      0.185702
O       3.85916      9.63508      2.46714         0.214438     -0.150158     -0.050244
O       3.88738      9.72733     14.91750        -0.020110     -0.237202      0.152610
O      15.58145      9.77163      2.35631        -0.231014     -0.007160      0.048019
O      15.51749      9.75460     14.86118         1.047660     -0.140865      0.259637
O       3.89299      9.95001      6.49729         0.048472     -0.636869      0.253224
O       0.11155      9.75326      6.61091        -1.484208     -0.466080      0.374164
O       3.95993      9.71146     10.81943        -0.512466      0.060923      0.041371
O       0.06029      9.65199     10.78987        -0.096797     -0.164639      0.071012
O       7.75197      1.79565      2.50762        -0.147596      0.561358     -0.131373
O       7.81955      1.98211     15.06936        -0.400039     -0.010926     -0.039931
O       7.72124     13.58403      2.44377         0.482337     -0.736405      0.089920
O       7.82115     13.56372     14.83966        -1.025011     -0.285411     -0.081880
O       7.74720      1.91912      6.67612         1.314254     -0.080379      0.269213
O       7.75830     13.70881      6.60295         1.381297     -0.249903     -0.124978
O       7.85320      1.89247     10.76511         0.353316      0.069579     -0.065410
O       7.87882     13.74129     10.81081        -0.941519     -0.468809     -0.121346
O       7.82800      5.64870      2.40686        -0.475504      0.411579      0.188748
O       7.83049      5.81350     14.90411         0.106245     -0.202093      0.149970
O       7.88218      5.69819      6.75920        -0.471535      0.910980     -0.357131
O       7.84060      5.86888     10.63781         0.442366     -0.083337      0.362266
O       7.66002      9.85747      2.50456         1.481370     -0.210021     -0.100102
O       7.78483      9.82491     14.97178         0.361894     -0.073375     -0.168199
O       7.79686      9.56364      6.63146        -0.219457      0.383862     -0.095464
O       7.79543      9.80369     10.77316        -0.424019     -0.370895      0.043565
O      11.63446      1.66686      2.65731         0.638846      0.830194     -0.623643
O      11.58654      1.89694     14.84820         0.922807      0.389586      0.109274
O      11.71695     13.79189      2.22015        -0.146033     -0.498959      0.440604
O      11.63114     13.69079     15.06003         1.007813     -0.635402     -0.048681
O      11.80373      2.00997      6.60354        -1.349959     -0.363936     -0.108682
O      11.71981     13.52394      6.74624        -0.101668      0.253447     -0.207816
O      11.69919      1.87313     10.75603         0.948358     -0.021533      0.093188
O      11.76792     13.44548     10.66570        -0.037928      0.226376     -0.088885
O      11.77196      5.85701      2.66931        -0.378805     -0.454668     -0.408661
O      11.74115      5.84762     14.88502        -0.408276     -0.081936     -0.169140
O      11.81598      5.73060      6.61285        -0.896227      0.069763     -0.258493
O      11.75974      5.78861     10.73695         0.448289      0.021551      0.262187
O      11.70044      9.63991      2.52654         0.081052     -0.131069     -0.374494
O      11.71309      9.56279     14.85751        -0.201331      0.108024      0.034262
O      11.71316      9.71373      6.72855         0.524857      0.016101     -0.201374
O      11.67828      9.86092     10.71507         1.072671     -0.459774      0.235258
O       1.95376      3.88733      2.37264         0.404802     -0.240149      0.318200
O       2.20148      3.78906     15.06030        -0.829708      0.360416      0.012639
O       1.80382     15.57996      2.35766         0.168672     -0.186296      0.309701
O       1.92965     15.54512     15.02432         0.125339     -0.070360     -0.269462
O      13.48373      3.80254      2.30555        -0.067209      0.449419      0.220222
O      13.63450      3.83268     14.99785         0.153795      0.151574      0.014879
O      13.80482     15.54780      2.52670        -0.419758     -0.450072     -0.546792
O      13.53700     15.57641     14.95361         0.674791     -0.723469     -0.391412
O       1.97039      3.78847      6.60223        -0.260416      0.254982      0.038812
O       1.96893     15.55929      6.69404         0.265609     -0.006979     -0.412658
O      13.77015      3.82822      6.68731        -0.284968      0.100922     -0.348185
O      13.59218     15.58569      6.57835         0.081477     -0.304185      0.197533
O       2.16348      3.85002     10.53164        -0.568484     -0.015955      0.979143
O       1.95321      0.02075     10.90985        -0.109681     -0.534547      0.172639
O      13.69660      3.83901     10.91898        -0.265982     -0.143263     -0.065944
O      13.73347     15.55512     10.95442        -0.090765     -0.152576     -0.481474
O       1.88927      7.82694      2.51614        -0.157316     -0.315640      0.223591
O       1.91883      7.68633     14.93997         0.094187      1.195445     -0.024262
O      13.68102      7.73764      2.46706         0.167487      0.350841     -0.036178
O      13.87358      7.64864     14.92612        -0.460342      0.657134     -0.473156
O       2.11454      7.70233      6.38151         0.050607      1.176953      0.333067
O      13.75583      7.67908      6.81606        -0.124746      0.932281     -0.681339
O       2.12409      7.73364     10.90062        -0.843054     -0.209233     -0.144870
O      13.78720      7.71755     10.64419         0.180236      0.237888      0.631198
O       2.06083     11.67023      2.36526        -0.276232      0.148725     -0.042626
O       1.92534     11.61312     15.07168        -0.289222      0.453169     -0.014365
O      13.64129     11.58905      2.48526        -0.288947      0.372660     -0.376093
O      13.57597     11.63304     14.83571        -0.057651      0.959898      0.382954
O       1.90934     11.68988      6.68707        -0.197850     -0.099486      0.138751
O      13.74351     11.69234      6.69324        -0.014315     -0.560025      0.208630
O       1.95389     11.65012     10.82714         0.083803     -0.062071     -0.420739
O      13.84681     11.65679     10.72411        -0.041311     -0.464825      0.112201
O       5.75077      3.79235      2.45354         0.124283      0.388607      0.192596
O       5.76338      3.90649     14.95491         0.447458     -0.248074     -0.138122
O       5.86046     15.55009      2.50086        -0.025654      0.317721     -0.162819
O       5.86653     15.53680     14.90318         0.212558     -0.133369     -0.094378
O       5.91321      3.85603      6.70604        -0.005062      0.060192     -0.250471
O       5.88901     15.58513      6.58387        -0.622789      0.616997      0.429845
O       5.99829      3.86983     10.72838        -0.090972     -0.061059      0.202055
O       5.80640      0.02006     10.73150         0.732719     -1.288175      0.317450
O       5.97787      7.72877      2.54061        -0.304800      0.351337     -0.368635
O       5.99116      7.77316     14.82279        -0.375276      0.674824      0.358622
O       5.75057      7.74071      6.65311         0.264955      0.117979     -0.502158
O       5.81680      7.75317     10.62707         0.244737      0.839601      0.471308
O       5.59958     11.67525      2.38825         0.245851      0.413494     -0.505392
O       5.78658     11.67662     15.01107         0.028654      0.426786     -0.186071
O       5.94009     11.75881      6.55151         0.058124     -1.002018      0.259559
O       5.78211     11.69292     10.73443         0.608254      0.320412     -0.033630
O       9.69814      3.81041      2.58655         0.723321      0.064823     -0.027371
O       9.77315      3.90699     14.61415        -0.110483      0.017044      0.608433
O       9.63094     15.49437      2.40890         0.087488     -0.801126     -0.029949
O       9.74339     15.58842     14.96009        -0.579522     -0.132150      0.222028
O       9.75918      3.83721      6.53774         0.297436     -0.337801     -0.242707
O       9.79298     15.54341      6.73440         0.365896      0.144890      0.106256
O       9.94160      3.87774     10.82940        -0.604881     -0.002986     -0.067257
O       9.89746     15.54325     10.66792         0.104399     -0.186067     -0.271282
O       9.69498      7.75699      2.51537        -0.096745      0.169217     -0.132030
O       9.74678      7.79380     15.06130        -0.149953      0.025958     -0.352445
O       9.79473      7.77584      6.79109         0.135875     -0.853469     -0.292358
O       9.83119      7.79686     10.66573         0.026630      0.209817      0.057482
O       9.86521     11.62968      2.65058        -0.339120     -0.078967     -0.458606
O       9.89997     11.68617     14.76807        -0.189073     -0.874526      0.223480
O       9.59412     11.63738      6.45031         0.039957      0.374968      0.057536
O       9.68736     11.63803     10.99299         0.049366      0.710405     -0.340088
