  # total energy = -7881.67749456 
CRSYTAL
PRIMVEC
    15.6080000000000005    0.0000000000000000    0.0000000000000000
     0.0000000000000000   15.6080000000000005    0.0000000000000000
     0.0000000000000000    0.0000000000000000   16.6239999999999988
PRESSURE
-0.159669 -0.412644 0.325255 -0.094315 -0.023265 -0.025208
PRIMCOORD
320 1
Pb       3.81333      3.80517      4.06792         0.154263      0.025433      0.823852
Pb       3.76647      3.76814      0.03741        -0.015731     -0.280764     -0.441179
Pb       3.90864     15.48514      4.25445         0.361984     -0.058694     -0.362060
Pb       3.93147     15.54481      0.08772        -0.260664      0.475022     -0.612948
Pb      15.50504      3.82994      4.15014         0.002239      0.433539     -0.146334
Pb      15.54974      3.92449     16.56235         0.487653      0.143187     -0.036573
Pb       0.12318      0.01018      4.20977        -0.698538     -0.217276      0.197095
Pb       0.03814     15.54418      0.00620         0.165796      0.371092      0.061843
Pb       3.99449      4.01465      8.34139        -0.910385     -0.102819      0.256124
Pb       3.90008      0.13359      8.49410         0.233044     -0.328916     -0.295876
Pb       0.06298      3.91819      8.22449         0.014678      0.146175     -0.003357
Pb       0.08357      0.07622      8.29624        -0.864960     -0.133492      0.356299
Pb       3.89563      3.98648     12.36380        -0.584810     -0.258315      0.810768
Pb       3.86780     15.59158     12.32188        -0.039478      0.081409      0.549134
Pb      15.52457      3.73989     12.22670         0.141462      0.313585      0.856153
Pb      15.46464     15.59955     12.37631         0.159371     -0.370161     -0.202150
Pb       3.86022      7.72589      4.22678        -0.218824      0.120512     -0.449995
Pb       3.79779      7.81396     16.60225        -0.122140     -0.134149     -0.221982
Pb      15.56223      7.79969      4.06803        -0.254198      0.323674     -0.310362
Pb       0.01902      7.79734      0.01539        -0.171664      0.061998     -0.095031
Pb       4.03446      7.83393      8.23296        -0.817232      0.390698      0.566826
Pb       0.09523      7.85094      8.12875        -0.515758     -0.000793      1.058410
Pb       3.76020      7.85806     12.52574         0.317456     -0.146395     -0.085676
Pb       0.00095      7.75869     12.40241        -0.187689     -0.085020      0.119883
Pb       3.97591     11.65362      4.24222         0.133147      0.428970     -0.207095
Pb       3.89660     11.65829     16.52864        -0.016820     -0.079630      0.583197
Pb       0.05940     11.78895      4.19607        -0.323592     -0.494772     -0.047241
Pb       0.05696     11.73684      0.05675        -0.128795     -0.527887     -0.061477
Pb       3.89311     11.55028      8.25345        -0.320649      0.222880      0.501085
Pb      15.46321     11.72204      8.34459         0.391965     -0.110432     -0.365822
Pb       3.77536     11.80742     12.57685        -0.241120     -0.243788     -0.482662
Pb      15.45460     11.59128     12.38016         0.194810      0.573404      0.330871
Pb       7.76262      3.99789      4.10370         0.359561     -0.239578     -0.145623
Pb       7.64006      3.67258      0.04488         0.160757      0.547186      0.027860
Pb       7.74576      0.01526      4.08987         0.253257     -0.284639      0.096478
Pb       7.79218     15.40234     16.61792        -0.274326      0.110105     -0.112171
Pb       7.78569      3.97501      8.19508         0.649611     -0.111896      0.600072
Pb       7.77353     15.53574      8.44179        -0.105922     -0.098303     -0.285506
Pb       7.75386      4.13034     12.45524         0.456495     -0.892807      0.347144
Pb       7.85786      0.13308     12.48224        -0.255158     -0.814189      0.280314
Pb       7.61163      7.78787      3.97931         1.176590     -0.210827      0.884019
Pb       7.92071      7.79011     16.55321        -0.234306     -0.305925      0.787988
Pb       7.78451      7.80378      8.43916         0.003026      0.202210     -0.319482
Pb       7.78584      7.85237     12.56834        -0.006834      0.066230     -0.122045
Pb       7.72538     11.74192      4.08512         0.248103     -0.447510     -0.071911
Pb       7.83882     11.50423      0.00107         0.249501      0.658747      0.268503
Pb       7.61651     11.62674      8.37998         0.735779     -0.016893     -0.093475
Pb       7.70595     11.67828     12.54035         0.473064     -0.101936     -0.425566
Pb      11.61458      4.03485      4.13141         0.582618     -0.257254     -0.059562
Pb      11.70953      3.74409     16.40497         0.010644      0.535259      1.036100
Pb      11.88516      0.23128      4.21191        -0.181606     -0.480320     -0.195300
Pb      11.72227     15.55042      0.04205         0.180126      0.496885     -0.119939
Pb      11.68559      3.74421      8.16712        -0.015754      0.468629     -0.113944
Pb      11.61040     15.41097      8.22376         0.450127      0.136572     -0.156905
Pb      11.58826      3.90025     12.40779         0.338783     -0.496257      0.136775
Pb      11.88230     15.55871     12.47423        -0.259381      0.158704      0.121394
Pb      11.71013      7.80607      4.04637         0.078806      0.318272      0.286935
Pb      11.64811      7.72491     16.56047         0.232780      0.303838      0.451597
Pb      11.71849      7.83140      8.10243        -0.001007     -0.606846      0.250729
Pb      11.83803      7.57768     12.44255        -0.436761      0.602041      0.122243
Pb      11.52363     11.99423      4.21385         0.370566     -1.086605      0.100373
Pb      11.83369     11.79168     16.61530        -0.602303     -0.436602      0.206138
Pb      11.64782     11.55184      8.12907        -0.100820      1.082309      0.801669
Pb      11.57836     11.57996     12.40976         0.237070      0.412857     -0.151711
Ti       1.92036      1.78887      2.32830         0.362365      1.348006     -1.820771
Ti       1.93586      1.85688     14.66394         0.872146      0.034512      0.421104
Ti       1.95704     13.58371      2.28877         1.024510     -0.437400      0.139035
Ti       1.96701     13.56421     14.67324        -0.511221      1.707800     -1.354194
Ti      13.69498      1.95550      2.15174        -0.479166     -0.079729      0.823190
Ti      13.77727      1.95577     14.73296        -1.221364     -0.403397     -0.582505
Ti      13.62575     13.62317      2.31524         0.373898      0.437244     -0.100830
Ti      13.70462     13.69486     14.75396        -0.203156      0.160841     -1.450947
Ti       2.01458      2.02607      6.43831        -0.497313      0.343858     -0.353445
Ti       2.01794     13.70003      6.49834        -0.563293     -1.070854     -0.306900
Ti      13.70194      1.96215      6.36063         0.104433     -0.300131      0.173261
Ti      13.70994     13.62495      6.31639        -1.076976      0.369736      0.451142
Ti       1.92750      1.99851     10.46903         0.070120      0.095238      0.328879
Ti       1.91884     13.69834     10.52857        -0.511880     -0.796534     -0.242127
Ti      13.53739      1.91467     10.38253         0.478400     -0.275702      0.094085
Ti      13.57366     13.59422     10.48281         0.494458      0.335696      0.246571
Ti       1.92512      5.78431      2.27659        -0.183299      0.312507     -0.553864
Ti       1.93484      5.78636     14.69611        -1.041839     -0.687788     -0.117037
Ti      13.67030      5.89789      2.08487         0.196359     -0.419635      1.433669
Ti      13.62375      5.95192     14.61733         0.116645     -1.096589      0.621196
Ti       1.96672      5.99979      6.29833        -0.366372     -1.523643      0.041396
Ti      13.73541      5.85612      6.37794        -1.116959     -0.157199     -0.694422
Ti       1.87798      5.91347     10.50412         0.619091      0.017189     -0.204915
Ti      13.66088      5.74898     10.38046         0.323679      0.278558      0.136083
Ti       2.08749      9.77258      2.28019        -1.555859     -0.018895     -0.396884
Ti       1.89497      9.73288     14.63469        -0.164750      0.884582      0.145941
Ti      13.63744      9.80843      2.21635         0.387426     -0.044547      0.501384
Ti      13.59067      9.82279     14.67295         0.856199     -0.303533     -0.009348
Ti       1.84346      9.83033      6.30917         0.848612      0.085487      0.491407
Ti      13.59997      9.74291      6.30512         0.748169     -0.073565     -0.181823
Ti       1.89224      9.78554     10.57011         0.484183     -0.316646     -0.139833
Ti      13.58662      9.61570     10.45433         0.630040      0.264304      0.066582
Ti       5.86916      1.88498      2.29256        -0.379240     -0.539524     -0.637996
Ti       5.78144      1.92072     14.63411        -1.038761     -0.210534      0.242070
Ti       5.89485     13.53980      2.16196        -0.693572      0.187386      0.506231
Ti       5.81506     13.60576     14.67128         0.558227      0.771559     -0.300052
Ti       5.88869      1.99188      6.44296        -0.211648     -1.141758     -0.830504
Ti       5.82059     13.62971      6.54237         0.276214     -0.115044     -0.946154
Ti       5.89039      1.94043     10.60048        -0.519159     -0.059682      0.071926
Ti       5.83483     13.51912     10.62461        -0.001357      0.665089     -0.923924
Ti       5.80263      5.80387      2.24828         0.055201     -0.342186      0.952817
Ti       5.72954      5.82785     14.73111         0.120662     -0.322745     -1.224278
Ti       5.79468      5.80141      6.38165         0.471550      1.923353     -1.662841
Ti       5.84888      5.84565     10.62638        -0.356767      0.599884     -0.292317
Ti       5.80802      9.62562      2.15522         0.805574      1.666464      0.800416
Ti       5.80844      9.68550     14.72454        -0.305084     -0.211536     -0.741297
Ti       5.83693      9.70201      6.27681         0.270907      0.327153      1.005048
Ti       5.77828      9.67055     10.63285         0.017764      0.477146      0.973306
Ti       9.82322      1.91540      2.17896        -0.319651     -0.046409      0.589017
Ti       9.66469      1.88736     14.73085         0.625168      0.168941     -0.341764
Ti       9.76285     13.71190      2.19392        -1.057789     -0.462219     -0.120231
Ti       9.76860     13.66489     14.65445        -0.397348     -0.656599      0.658121
Ti       9.70903      1.87972      6.28282         0.577121      0.351848      0.574962
Ti       9.63361     13.63285      6.33540         0.890712     -0.867853      0.679871
Ti       9.72410      1.86420     10.49679         0.905772      0.543992      0.769144
Ti       9.72942     13.66757     10.53286        -0.082183     -1.296806      1.107224
Ti       9.83532      5.82088      2.20856        -1.170820      0.635664     -0.295722
Ti       9.64047      5.74519     14.72315         0.533444      0.280679      0.320477
Ti       9.69291      5.82469      6.29761         1.158192      0.078905      0.556132
Ti       9.82971      5.83005     10.49141        -0.878736     -0.501848      0.140008
Ti       9.75130      9.73204      2.26807        -0.012050      0.571541     -0.186029
Ti       9.76036      9.69894     14.76592         0.497433      0.747005     -0.774496
Ti       9.67837      9.68673      6.26903        -0.366437      1.240338     -0.194115
Ti       9.75739      9.62094     10.61394        -0.857655      0.732353      0.394394
O       2.06477      1.80481      0.48332        -0.260448      0.354359      1.351633
O       1.96816      2.00401     12.92048        -0.204086     -0.509626     -1.426108
O       2.04532     13.41964      0.51931        -0.211112      0.425961     -0.232515
O       1.85112     13.65714     12.84485         0.294003     -0.041175      0.760331
O      13.56325      1.83594      0.41661         0.586009      0.294168     -0.896403
O      13.57242      1.92220     12.93781         0.592747     -0.069497      0.519819
O      13.64532     13.60803      0.51042        -0.078729      0.062782     -0.372544
O      13.74525     13.79691     12.90898        -0.075653     -0.039143      1.047191
O       1.91899      1.76586      4.64631         0.021911      0.236329      0.173069
O       2.04752     13.74875      4.68733        -0.619841     -0.165802     -0.168779
O      13.81451      2.03811      4.54193        -0.733908     -0.448900      0.650705
O      13.74832     13.58497      4.53017        -0.598386     -0.061643     -0.065953
O       1.88296      1.93759      8.68775         0.232339      0.133793     -0.073042
O       1.88349     13.55435      8.73793        -0.014904      0.246646     -0.160291
O      13.65624      1.94058      8.62614        -0.220067     -0.123273     -0.610900
O      13.52156     13.67158      8.69925         0.197919     -0.333094      0.065884
O       1.90645      5.88717      0.42366         0.106722     -0.212624      0.961677
O       1.82694      5.84525     12.92617         0.467515      0.047890      0.353056
O      13.71143      5.98610      0.35773        -0.026301     -0.236152     -0.816181
O      13.42381      5.79793     12.82397         0.803806      0.010823      0.552495
O       1.98419      5.86731      4.51067         0.059027      0.403886      0.406244
O      13.74854      5.87575      4.57575        -0.361081     -0.190517      0.095195
O       1.84360      5.97027      8.74183        -0.080059     -0.059581     -0.623357
O      13.79331      5.86659      8.62756        -0.300402     -0.344716      0.423765
O       1.93546      9.92464      0.44939         0.369683     -0.276925      0.579128
O       2.10485      9.81609     12.86634        -0.531779     -0.400438     -0.164893
O      13.69314      9.82179      0.45377         0.009875      0.106880     -1.189312
O      13.67251      9.68461     12.91640        -0.536671      0.102323     -0.242332
O       1.99743      9.84700      4.55598        -0.232101     -0.513840     -0.254801
O      13.67319      9.63727      4.53746        -0.084691      0.146757      0.222607
O       1.94581      9.69130      8.79574        -0.211715      0.105040     -0.121752
O      13.67428      9.69770      8.67177        -0.181161      0.032121      0.622111
O       5.68520      1.83982      0.47923         0.401045      0.476507      1.072221
O       5.73850      1.92514     12.84991         0.150465     -0.402329     -0.155566
O       5.83304     13.60254      0.39048         0.003036      0.247721     -0.294215
O       5.87380     13.65099     12.87441        -0.074346     -0.387340      0.287160
O       5.97629      1.79318      4.66530        -0.400959      0.601807      0.728732
O       5.99846     13.47576      4.72282        -0.448493      0.749836      1.278243
O       5.86032      2.08575      8.81653         0.165128     -0.306228     -0.346448
O       5.67095     13.47814      8.80735         0.626147      0.173915     -0.547554
O       5.77628      5.71876      0.54487        -0.053370      0.127693     -1.722525
O       5.60556      5.85328     12.87812         0.686471     -0.222860      0.520813
O       5.79601      5.85845      4.57304        -0.028796      0.143175      0.584737
O       5.87627      5.62289      8.80616         0.118728      0.899026      0.111900
O       5.92623      9.72364      0.40470        -0.591480     -0.471558     -0.786382
O       5.86563      9.55257     12.91413        -0.219840      0.803705      1.003139
O       5.74803      9.81941      4.54243         0.203523     -0.580134     -0.236930
O       5.81660      9.64188      8.85943         0.399475      0.248421     -0.624696
O       9.79495      1.95802      0.42271        -0.259002     -0.200423     -0.635957
O       9.67897      1.94371     12.93566         0.027226      0.086788      0.840190
O       9.78404     13.87977      0.43426        -0.001249     -0.445636     -0.240402
O       9.66232     13.58158     12.90149         0.228464      0.034681      0.031261
O       9.85029      1.95480      4.54215        -0.201468      0.371044     -0.371294
O       9.57200     13.31899      4.57938         0.063208      0.948478     -0.058649
O       9.80880      1.81587      8.75879        -0.289651     -0.019116     -0.880359
O       9.86479     13.70633      8.79047        -0.216021      0.384371     -0.655309
O       9.64879      5.92269      0.46225         0.526097      0.040769     -0.492110
O       9.78254      5.60898     12.93795         0.032614      0.379397      0.159781
O       9.83739      5.72736      4.53942        -0.041061      0.078890     -0.235705
O       9.57390      5.84221      8.73007         0.298555      0.355817     -0.185352
O       9.64113      9.61890      0.47535        -0.148465      0.055850     -0.634619
O       9.73357      9.70955     12.94382         0.327602      0.176349      0.896609
O       9.70335      9.92933      4.53481         0.269123     -0.158723     -0.212886
O       9.55101      9.44746      8.86349         0.484085      0.310439     -0.348424
O       3.85431      1.83073      2.70122         0.794455      0.275746     -0.320520
O       3.85122      1.91116     15.04733         0.669953     -0.241391     -0.019343
O       3.99406     13.62057      2.60971        -0.673331      0.678874      0.127590
O       3.87697     13.71352     14.79656         0.592150     -0.558022      0.604737
O      15.54614      1.86076      2.50813         1.192759      0.108873      0.090377
O       0.05554      1.89927     15.03667        -1.180351     -0.221093      0.167767
O       0.03923     13.53094      2.59338         0.671113      0.081751     -0.379862
O       0.00032     13.73103     15.14523         0.363331     -0.794746     -0.299735
O       3.87072      1.94991      6.74012         1.237442     -0.465674      0.217920
O       3.86726     13.64158      6.65090         0.960664     -0.126304      0.427412
O       0.07479      2.04007      6.68518        -0.422905     -0.116207      0.112116
O      15.46724     13.44137      6.61322         2.173987      0.117762      0.507285
O       3.88067      1.93738     10.69596         0.086165     -0.165510      0.258826
O       3.82733     13.49829     10.78127        -0.309476      0.586122      0.780949
O      15.49430      1.88555     10.69014         1.176180      0.633406      0.443217
O      15.58004     13.68650     10.81557        -0.164772     -0.142152     -0.207392
O       3.87707      5.66884      2.61326        -0.044398      0.604848     -0.476729
O       3.81639      5.70435     15.02447        -0.250867      0.911055      0.278474
O       0.03718      5.85187      2.54503        -0.056274     -0.086417     -0.332781
O      15.56994      5.83741     15.04302         0.108075      0.259607     -0.223446
O       3.84857      5.92935      6.70124         0.783871      0.524068      0.042403
O       0.01472      5.78301      6.56003         0.953846      0.373120      0.334961
O       3.80247      5.96376     10.70465         1.434673     -0.372312      0.451545
O      15.58339      5.72664     10.90763        -0.958381      0.350957     -0.395441
O       3.93520      9.71183      2.61956        -0.072580     -0.156215     -0.472185
O       3.85022      9.62857     15.00730         0.848781      0.563397      0.292319
O      15.55722      9.70907      2.46167         1.046707      0.480433      0.482264
O       0.03070      9.99012     14.81070        -0.664327     -0.431976      0.686601
O       3.89824      9.70106      6.67590         0.104082     -0.093218     -0.019700
O      15.58707      9.75300      6.67328        -0.294996      0.133099     -0.214084
O       3.86977      9.54611     10.85168         0.376022      0.637919     -0.105099
O      15.52100      9.66562     10.89418         0.247543      0.200044     -0.190827
O       7.88347      2.08110      2.47873        -1.003771     -0.457221      0.087034
O       7.61937      1.98803     15.06060         1.552021     -0.071728     -0.139182
O       7.79422     13.75580      2.58363        -0.492293     -0.450961     -0.516266
O       7.85253     13.56363     15.06883        -0.453440      0.042687     -0.199229
O       7.80912      1.99165      6.70539        -0.690086      0.017191      0.066114
O       7.82266     13.64798      6.95041        -0.942727     -0.066217     -0.187556
O       7.84005      1.91446     10.90331        -1.293732      0.044648     -0.403863
O       7.74805     13.60304     10.75057         0.465825     -0.216204      0.021060
O       7.87153      5.92280      2.50882        -1.160584     -0.626249      0.429286
O       7.73769      5.83905     14.91336        -0.267747     -0.009575      0.028879
O       7.79764      5.73462      6.48546        -0.420415      0.178746      0.655244
O       7.79833      5.86531     10.91829        -0.567591     -0.493647     -0.156481
O       7.71842      9.60851      2.60579        -0.603788      0.539411     -0.592472
O       7.80455      9.65581     15.03051        -0.220195      0.089263     -0.324586
O       7.81328      9.83280      6.58588        -0.440954     -0.569303      0.405929
O       7.80648      9.71339     11.02253         0.423791      0.248830     -0.375287
O      11.75716      1.81231      2.52011        -0.213755      0.358151      0.120891
O      11.71187      1.87810     15.06175        -0.837638      0.293930     -0.535405
O      11.62193     13.72897      2.59673         0.604366     -0.348289      0.077915
O      11.71336     13.82915     15.01430        -0.324127     -0.726122     -0.126922
O      11.74310      1.83842      6.62748         0.093910      0.416295     -0.241497
O      11.60185     13.59005      6.57819         0.587614      0.427971     -0.090954
O      11.71155      1.74593     10.81423        -1.436945      0.566132      0.004918
O      11.72174     13.65766     10.91371        -0.637154      0.282224      0.016519
O      11.75038      5.98413      2.54617        -0.056539     -0.519145     -0.385975
O      11.68748      5.85702     15.00182         0.118660     -0.230344     -0.035770
O      11.70758      5.82989      6.66537        -0.356109     -0.251389      0.148224
O      11.71968      5.80238     10.76068        -0.510173      0.091428     -0.232400
O      11.65598      9.77098      2.43232         0.261112     -0.073581      0.370029
O      11.71250      9.85081     15.10216        -0.164628     -0.677440     -0.311736
O      11.72427      9.79665      6.61201        -1.057716     -0.825093      0.093600
O      11.75656      9.69803     10.83449        -1.243743     -0.194697      0.024672
O       1.90551      3.78536      2.71922        -0.062007      0.632917     -0.911910
O       1.86680      3.79083     14.97767         0.179552      1.352619      0.593447
O       1.92340     15.55418      2.54831         0.087109     -1.144994      0.124380
O       2.00348     15.55459     15.09101        -0.424263     -0.385045     -0.053063
O      13.66003      3.88971      2.36899         0.043340      0.228844      0.227912
O      13.72607      3.91711     15.05600        -0.245860     -0.490722     -0.317865
O      13.72789     15.51611      2.55645        -0.243517      0.517222      0.239223
O      13.66330      0.00070     15.04970         0.412013      0.262350      0.116739
O       2.11830      3.98206      6.68335        -0.734093     -0.672894     -0.112378
O       1.85376     15.52491      6.81817         0.392130      0.864223     -0.224690
O      13.72380      3.90924      6.72956        -0.452961     -0.661212     -0.323541
O      13.87756     15.56869      6.57184        -0.723888      0.510998     -0.101951
O       1.98516      3.93627     10.79261        -0.433848     -0.676463     -0.143471
O       1.96536      0.06269     10.69616         0.043815     -0.717011      0.270034
O      13.47702      3.83043     10.71887         0.545594      0.460099      0.106247
O      13.63334      0.02317     10.78232         0.086837     -0.913002      0.316599
O       2.03074      7.85302      2.50413         0.046189     -0.902702      0.116709
O       1.85089      7.90656     14.97562         0.201877     -1.691620      0.211048
O      13.73086      7.76340      2.44632        -0.281315      0.397338      0.285623
O      13.66512      7.81700     14.91290        -0.023680      0.325058      0.126171
O       1.87597      7.88060      6.58431         0.348881     -0.796732     -0.090665
O      13.60962      7.76176      6.69954         0.325943      0.561603     -0.301379
O       1.90474      7.80234     10.95557        -0.787601     -0.131756     -0.015668
O      13.59558      7.69290     10.72702         0.210736      0.292993      0.342306
O       2.19059     11.67467      2.75405        -1.268484      0.603565     -0.786521
O       2.07800     11.72348     14.93044        -0.179588     -0.109450      0.145343
O      13.64991     11.70893      2.57567        -0.213509     -0.000911     -0.019315
O      13.57919     11.76509     14.93249         0.096686      0.054975      0.248300
O       1.91166     11.65314      6.71173         0.207131      0.697707      0.106734
O      13.58337     11.63131      6.71424         0.115131      0.295101     -0.293914
O       1.87247     11.64422     10.90880         0.085448      0.275005     -0.295840
O      13.56409     11.70922     10.93906         0.407117     -0.482770     -0.707350
O       5.89376      3.82237      2.68499        -0.374240      0.189256     -0.544292
O       5.67022      3.87687     14.92786         0.650314     -0.138639      0.493792
O       5.84932     15.54613      2.64011         0.216254      0.868731     -0.323335
O       5.92459     15.52009     14.99568        -0.402575      0.346666     -0.031422
O       5.67919      4.01502      6.62475         0.630324     -2.467798      0.230795
O       5.84894     15.58544      6.89698        -0.002566      0.279024     -0.238317
O       5.76916      3.87814     10.99702         0.572998      0.266898     -0.740121
O       5.76182     15.45481     10.85069         0.203294      1.959295     -0.375631
O       5.73177      7.76878      2.54065        -0.163722     -0.980116     -0.144659
O       5.70047      7.73020     14.93700         0.223612     -0.100615      0.808271
O       5.90629      7.82168      6.76975         0.011142     -0.609888     -0.354821
O       6.04980      7.83221     10.95677        -0.854485     -1.703820     -0.834936
O       5.74537     11.65378      2.39025         0.693167      0.009263      0.358935
O       5.81650     11.62777     14.98012        -0.022990      0.031109     -0.353556
O       5.85771     11.59812      6.79607        -0.251360      0.680467     -0.073022
O       5.80220     11.67457     10.97885         0.126414     -1.283511      0.084619
O       9.89029      3.93670      2.47605        -0.025313     -0.350091      0.132170
O       9.63450      3.91660     15.18435         0.223567     -0.802970     -0.537360
O       9.66065      0.01701      2.55077         0.279905      0.304091      0.194979
O       9.59885      0.02666     14.95469         0.059936     -0.156366     -0.068186
O       9.74947      3.85701      6.70524         0.243203      0.003718     -0.157735
O       9.72536     15.59969      6.44875        -0.224612     -0.478100      0.693224
O       9.74697      3.84847     10.83369         0.080199      0.076784     -0.314082
O       9.61482     15.53136     10.87867         0.324458      0.707944     -0.033068
O       9.71301      7.88110      2.57104         0.341954     -1.337022      0.462349
O       9.81585      7.75418     15.10898        -0.422756      0.181734     -0.765063
O       9.82059      7.81505      6.45460        -0.356466     -0.649785      0.519760
O       9.71208      7.67177     11.05234         0.412545      0.538117     -0.625268
O       9.50787     11.71915      2.36566         0.709506      0.296119      0.057939
O       9.76387     11.65642     15.22128         0.183198      0.291399     -0.880390
O       9.77982     11.71453      6.80579        -0.591843     -0.659312     -0.254404
O       9.77476     11.67290     10.86667        -0.001018     -0.564001     -0.127338
