  # total energy = -7882.02400268 
CRSYTAL
PRIMVEC
    15.6080000000000005    0.0000000000000000    0.0000000000000000
     0.0000000000000000   15.6080000000000005    0.0000000000000000
     0.0000000000000000    0.0000000000000000   16.6239999999999988
PRESSURE
-1.10208 -0.922015 -0.358666 -0.147452 0.168295 -0.051278
PRIMCOORD
320 1
Pb       4.00258      3.86261      4.19980        -0.232502      0.635745     -0.351858
Pb       3.89661      3.89524      0.00735        -0.110359     -0.150656     -0.490238
Pb       3.93111      0.03355      4.12052         0.074732     -0.185661     -0.054886
Pb       3.83464     15.54930     16.54364         0.144220      0.197632     -0.425101
Pb      15.51297      3.85515      4.09216         0.519152      0.226181      0.657763
Pb      15.57725      3.81234     16.59842         0.168257      0.081130     -0.347960
Pb       0.00011     15.57335      4.07818        -0.261791      0.380812      0.524769
Pb       0.03806      0.01050     16.62258        -0.049919     -0.086153     -0.265283
Pb       3.86763      3.87112      8.27240         0.347676      0.024743      0.602224
Pb       3.98265      0.11016      8.30876        -0.238528     -0.450535      0.008691
Pb      15.53745      3.93886      8.23434         0.461060     -0.321921      0.471576
Pb       0.05148     15.58881      8.26166         0.230304      0.263103     -0.027933
Pb       3.70318      3.99673     12.61492         0.681663     -0.387287     -0.441469
Pb       3.80898     15.46866     12.50114         0.336116      0.172041     -0.467505
Pb      15.56514      3.88727     12.48056         0.471244     -0.535361     -0.609476
Pb       0.09834     15.59407     12.46636        -0.240211     -0.351210     -0.367291
Pb       3.74221      7.86463      4.01790         0.435940     -0.421282      0.664948
Pb       3.82767      7.66900     16.57612         0.522187      0.681005     -0.243387
Pb       0.02359      7.88681      4.03192         0.022576     -0.415165      0.485072
Pb      15.55618      7.77099     16.60478        -0.030708      0.108998     -0.093457
Pb       3.93617      7.78277      8.33479        -0.064009      0.019800     -0.362202
Pb      15.42028      7.76438      8.49861         0.688967      0.041620     -0.930133
Pb       3.88520      7.85666     12.51025         0.292017     -0.508722     -0.356639
Pb      15.43878      7.72262     12.48247         0.447224      0.426236      0.209339
Pb       3.89410     11.71325      4.10898        -0.183604     -0.354678      0.384279
Pb       3.88319     11.67640     16.54021         0.137211     -0.499356     -0.326495
Pb      15.58416     11.80312      4.11035        -0.033123     -0.572065      0.120244
Pb       0.00211     11.80859      0.05580         0.100572     -0.269837      0.179166
Pb       3.84806     11.84356      8.32575         0.472170     -0.726464     -0.629699
Pb      15.49859     11.67594      8.15712         0.482638     -0.081171      0.452206
Pb       3.83810     11.75682     12.38210         0.193976     -0.085251     -0.162155
Pb       0.00961     11.54123     12.41533        -0.106373      0.598368     -0.569140
Pb       7.73934      3.73000      4.12487        -0.038036      0.560227      0.056744
Pb       7.67941      3.81512     16.56065         0.668274     -0.275770     -0.033095
Pb       7.73807     15.50955      4.12924         0.171196      0.369456     -0.528100
Pb       7.78695      0.00318      0.00237         0.397667      0.029106     -0.161690
Pb       7.74000      3.84127      8.48675        -0.315433      0.101394     -0.392597
Pb       7.87050     15.55326      8.39501        -0.510675      0.153949     -0.309727
Pb       7.79153      3.78211     12.50304        -0.383465      0.213077     -0.273609
Pb       7.88433      0.02369     12.52663        -0.596711      0.103478     -0.432056
Pb       7.78444      7.80221      4.02862        -0.169706     -0.214066      0.616900
Pb       7.74408      7.83612     16.53948         0.247343     -0.297140     -0.192697
Pb       7.94780      7.86190      8.28006        -0.806958     -0.179048     -0.017694
Pb       7.93998      7.64155     12.45378        -0.789079      0.473618      0.215472
Pb       7.81435     11.76544      4.03791        -0.142587     -0.445749      0.676521
Pb       7.77060     11.67224     16.50614        -0.076601      0.183488      0.505780
Pb       7.69390     11.69748      8.28720        -0.580348     -0.165356     -0.640343
Pb       7.81548     11.58186     12.46766        -0.554059     -0.065850     -0.754017
Pb      11.76510      3.91136      4.29537        -0.318593     -0.195316     -0.303286
Pb      11.75322      4.04278      0.14208        -0.341610     -0.634378     -0.525394
Pb      11.56247      0.06467      4.18596         0.046903      0.247592      0.034554
Pb      11.64618     15.58908     16.54606        -0.206015     -0.430550      0.105486
Pb      11.63825      4.04870      8.38375         0.060690     -0.603132     -0.558142
Pb      11.50993     15.58341      8.28170         0.350778      0.361594      0.018275
Pb      11.77087      3.76325     12.45632        -0.348738      0.085445      0.023585
Pb      11.63884     15.48530     12.38457         0.231442      0.122460     -0.113708
Pb      11.73995      7.62000      3.97977        -0.414708      0.753739      0.428215
Pb      11.67184      7.79578      0.01855        -0.241858      0.049138     -0.548238
Pb      11.65522      7.83185      8.19024        -0.289940     -0.066758     -0.090150
Pb      11.52314      7.88596     12.50671         0.457042     -0.281759      0.367401
Pb      11.74001     11.57136      4.30489        -0.086595      0.032769     -0.679444
Pb      11.89081     11.71144     16.58527        -0.506172      0.245683      0.165368
Pb      11.75559     11.80357      8.38504         0.238830      0.091282     -0.384855
Pb      11.64493     11.69862     12.35842         0.628336      0.110056     -0.022080
Ti       1.92327      1.97392      2.12008        -0.039686      0.658400     -0.386193
Ti       1.94236      1.93138     14.56088         0.298352     -0.008570      0.416269
Ti       1.92277     13.82308      2.18155        -0.316059     -2.128055      0.777992
Ti       1.85952     13.59693     14.67717         0.601478      0.266427     -1.567268
Ti      13.57093      1.93171      2.17177         0.126804     -0.288399      1.043379
Ti      13.68269      1.76454     14.63129        -0.123402      1.125011     -0.631775
Ti      13.58788     13.73145      2.27115         0.587968     -0.948534     -0.630702
Ti      13.69400     13.57826     14.66990        -0.221459     -0.303328     -1.252628
Ti       1.99819      1.89176      6.30194        -0.669540     -0.265681      0.584501
Ti       1.95418     13.58586      6.34257         0.617857      0.539941      0.065778
Ti      13.61198      1.89736      6.46755        -0.008089      0.208116     -0.154111
Ti      13.61393     13.68720      6.43497        -0.084781     -0.497867     -0.241544
Ti       1.96784      1.90377     10.52173        -0.097462      0.333101      0.795466
Ti       1.96714     13.62042     10.41103        -0.879986     -0.616849      1.241128
Ti      13.68395      1.94626     10.51943         0.380242     -0.670266      0.810185
Ti      13.68824     13.69386     10.47440         0.600021     -1.159407     -0.384482
Ti       1.98003      5.77993      2.19787         0.167306      0.223374      0.829367
Ti       1.96500      5.82756     14.68132        -0.319485      0.190875     -0.573760
Ti      13.65989      5.75010      2.24719         0.264983      1.002736      1.840112
Ti      13.66502      5.66122     14.61582        -0.143115      1.305445      0.964730
Ti       1.97175      5.72756      6.45674        -0.776988      0.829359     -1.437114
Ti      13.59410      5.87093      6.45057         1.052254     -0.498745     -1.317272
Ti       1.95791      5.74856     10.49845         0.188765      0.017392     -0.236567
Ti      13.63183      5.85394     10.60615        -0.425392     -0.268157      0.011008
Ti       1.94767      9.80031      2.07892        -0.525724     -0.176501      1.167315
Ti       1.88892      9.70710     14.65889         0.276888      0.073605      0.315209
Ti      13.64095      9.78394      2.14028        -0.122497     -0.478636      1.546367
Ti      13.64379      9.68339     14.73064         0.520103     -0.016963     -0.355659
Ti       1.98170      9.64300      6.46077        -0.005082      0.373459     -0.921803
Ti      13.66520      9.72966      6.25226         0.847861      0.033977      0.479773
Ti       1.98587      9.61432     10.48661        -0.384410      0.655876     -0.558601
Ti      13.64946      9.67057     10.46026         0.046025      1.558275      0.358487
Ti       5.80758      1.96289      2.05322         0.429433     -0.412659      1.440299
Ti       5.79580      1.83760     14.62425         0.745236      0.848785      0.638603
Ti       5.82899     13.60434      2.15173         0.240612      1.110378      0.978374
Ti       5.81419     13.63950     14.68343         0.215842     -0.185052     -0.850212
Ti       5.85059      1.95785      6.39328         0.388079      0.675667      1.225202
Ti       5.82439     13.72123      6.24585        -0.159048     -1.611580      1.671553
Ti       5.76247      1.91787     10.62277         0.403078      0.104386      0.757896
Ti       5.89815     13.69398     10.50474        -0.192723     -0.117358     -0.138385
Ti       5.85950      5.90939      2.07861        -0.263143     -0.095457      1.951801
Ti       5.92277      5.74916     14.73598        -0.337510      0.980213     -1.673152
Ti       5.80994      5.82738      6.37398         1.528443      0.026552     -1.007086
Ti       5.76581      5.84781     10.60420         0.711406     -0.701075      0.300539
Ti       5.85106      9.79979      2.12407        -0.543430     -0.972806      0.367183
Ti       5.84869      9.72213     14.55711        -0.390548     -0.430896      0.344572
Ti       5.86068      9.65406      6.27311         0.094002      1.257166      1.119359
Ti       5.76723      9.69664     10.45089         1.537445      0.468831      1.808140
Ti       9.70367      1.92849      2.18138        -0.058326     -0.125413      0.040348
Ti       9.88449      1.91257     14.71837        -1.528728     -0.079911      0.023826
Ti       9.87371     13.62210      2.24339        -0.949741      0.043483     -1.061822
Ti       9.73984     13.60532     14.63624         0.450440      0.782442      0.196007
Ti       9.64800      2.00155      6.37950         0.075792     -0.146677      0.231494
Ti       9.69269     13.65268      6.31895        -0.185581      0.229971      0.419655
Ti       9.77649      1.95506     10.56975        -0.446322     -0.539828     -0.735129
Ti       9.68352     13.64320     10.47409        -0.093300     -0.266122      0.632880
Ti       9.66717      5.75490      2.17603        -0.322677      0.159112      0.220532
Ti       9.80407      5.70865     14.72843        -0.625059      1.341401     -0.278287
Ti       9.63024      5.86497      6.35670        -0.274140      0.102773     -0.094872
Ti       9.78206      5.81467     10.53024        -0.914326      0.231760      0.512345
Ti       9.70450      9.70252      2.19784         0.748422      0.291119      0.368875
Ti       9.72910      9.83355     14.70883         0.379178     -1.989871     -0.588920
Ti       9.81935      9.81437      6.37263        -1.624687     -1.013539     -0.743253
Ti       9.76546      9.70676     10.48578        -1.066841      0.264411      0.175212
O       1.85301      1.97124      0.28400         0.326429     -0.230286      0.869169
O       1.91339      1.96892     12.79896        -0.124363     -0.174079     -0.008235
O       1.71179     13.72817      0.43404         0.573016      0.309945     -1.098873
O       1.89676     13.58132     12.84286         0.045336      0.053402      1.223370
O      13.66358      1.89975      0.42152        -0.043235      0.245144     -0.442547
O      13.68969      1.78256     12.81412        -0.294733      0.464491      1.027456
O      13.75389     13.61810      0.45442        -0.444529      0.474657      0.532630
O      13.75352     13.54625     12.87192        -0.197030      0.159086      0.347875
O       2.06663      1.89813      4.52084        -0.094040     -0.106025     -0.268947
O       2.05494     13.74705      4.52308        -0.253589     -0.479110     -0.270625
O      13.58002      1.88516      4.67386        -0.014225      0.154540      0.457288
O      13.58506     13.61157      4.62312        -0.066125      0.420172      0.206339
O       2.07805      1.83383      8.76859        -0.344461      0.041963     -0.474855
O       1.84866     13.66981      8.66734         0.270733     -0.054302     -0.306854
O      13.80412      2.08353      8.81628        -0.447204     -0.556501     -1.791130
O      13.66976     13.46102      8.59986         0.042514      0.346293      1.281284
O       2.01674      5.86364      0.42476        -0.062937     -0.427148     -0.638164
O       1.90591      5.91342     12.86906         0.184555     -0.297353      1.030041
O      13.60077      5.58408      0.54047         0.078472      0.207034     -1.631287
O      13.63556      5.76091     12.84284         0.343035      0.115781      0.132881
O       1.97977      5.71270      4.62779        -0.000011     -0.100535      0.670418
O      13.65758      5.71729      4.63024        -0.424428     -0.034162      0.238731
O       2.00636      5.60319      8.70813         0.029071      0.313006      0.055858
O      13.58744      5.95586      8.82483         0.012579     -0.329296     -0.310946
O       1.98244      9.76168      0.34003         0.145687     -0.356635     -0.671281
O       1.91860      9.81386     12.87384         0.149128     -0.689873     -0.137970
O      13.59626      9.64891      0.37987        -0.019904      0.416905     -0.283559
O      13.77428      9.66527     12.93028        -0.273029      0.012527      0.336782
O       1.96595      9.67279      4.60131        -0.107970     -0.061743      0.801055
O      13.75124      9.83830      4.50152        -0.165924     -0.334395     -0.170123
O       1.99549      9.70790      8.70820         0.111989     -0.288160      0.249978
O      13.84313      9.75262      8.67420        -1.104473     -0.565120      0.398640
O       5.89827      1.95186      0.30908        -0.077269     -0.212772     -0.055896
O       5.87911      1.81789     12.88285         0.303285      0.261148     -0.488092
O       5.95217     13.60635      0.40221        -0.635791     -0.033433     -0.565446
O       5.70513     13.68918     12.90379         0.398056      0.100494      0.978559
O       5.83042      2.06464      4.65037        -0.013356     -0.260114     -1.379535
O       5.74394     13.57720      4.48123        -0.387514      0.551385     -0.386475
O       5.75244      1.88737      8.85935         0.083174      0.018189     -0.951208
O       5.97921     13.74550      8.68324        -0.234146     -0.065294      0.996276
O       5.83556      5.76763      0.33606        -0.163402      0.064842     -1.022632
O       5.80942      5.78537     12.90931         0.289755     -0.053824      0.612674
O       5.96940      5.76199      4.57529        -0.470157     -0.133771      0.371809
O       5.80081      5.83265      8.85010        -0.274823      0.095959     -0.684554
O       5.81255      9.89040      0.36704        -0.063499      0.000899      0.136681
O       5.99249      9.85425     12.77879        -0.671095     -0.598886      1.241269
O       5.96596      9.71624      4.51503        -0.453715      0.166884     -0.501616
O       5.69085      9.80155      8.71528         0.322984     -0.288491     -0.052862
O       9.73069      1.84520      0.39767         0.315018      0.087919     -0.332540
O       9.91894      1.87427     12.92777        -0.195771     -0.247245     -0.847035
O       9.93025     13.63007      0.39371        -0.388686     -0.139488      0.975358
O       9.87666     13.66338     12.84558        -0.400635     -0.061044      0.507415
O       9.64032      1.92694      4.59390        -0.004321     -0.083362      0.100526
O       9.80317     13.60362      4.54020        -0.189733      0.478390      0.194984
O       9.65259      2.04310      8.77250         0.572890     -0.158696      0.459006
O       9.54456     13.60799      8.69188         0.469648      0.017006     -0.052169
O       9.75758      5.76642      0.38446         0.144853     -0.329785      0.052698
O       9.63913      5.95006     12.94604         0.670043     -0.447657      0.035002
O       9.61960      5.92192      4.58805         0.191227     -0.306045     -0.450613
O       9.80212      5.82869      8.74192         0.171496     -0.042756      0.217286
O       9.75508      9.84511      0.43619         0.239281     -0.145996     -0.342252
O       9.68876      9.58952     12.85819         0.365172      0.845916      1.423187
O       9.56399      9.52128      4.62587         0.378774      1.045837     -0.015987
O       9.79962      9.61769      8.68432         0.188364      0.561068      0.554377
O       3.90327      2.02013      2.34278        -0.131457     -0.705901      0.118622
O       3.93036      1.92174     14.83688        -0.422706     -0.190462      0.628927
O       3.75758     13.79713      2.35541         0.960203     -0.623865      0.018678
O       3.85069     13.70184     14.98990         0.381118      0.004498      0.522240
O      15.56546      1.97092      2.47438        -0.077496     -0.006182      0.044698
O       0.03131      1.97825     14.84318        -0.924053      0.026814      0.445034
O      15.48114     13.55739      2.59605         0.796758      1.183660      0.134037
O       0.03749     13.76503     15.07137        -0.471582     -0.312911     -0.352175
O       3.88948      2.07473      6.71553         0.204026     -0.486971     -0.355332
O       3.90340     13.54448      6.71412         0.186371      0.377472     -0.331902
O       0.01049      1.73951      6.60453        -0.253135      0.455916      0.187240
O       0.07069     13.53378      6.50617        -1.380583      0.786503      0.275444
O       3.86071      1.89753     10.92175         0.203341      0.177432     -0.029238
O       3.90282     13.68568     10.72411        -0.350202     -0.366359      0.045485
O       0.03983      2.01176     10.80734        -0.310124     -0.520758      0.367553
O      15.57611     13.49704     10.82921        -0.103989      0.555184     -0.396327
O       3.92324      5.86618      2.55486        -0.183789     -0.616220     -0.453842
O       3.96928      5.85773     14.96089        -1.575087     -0.120302      0.240256
O      15.56974      5.69584      2.59724         0.135035      0.097454     -0.680520
O      15.58308      5.83599     15.10155        -0.007065     -0.724067     -0.447322
O       3.98334      5.65775      6.64939        -1.405318      0.250173      0.182936
O      15.58954      5.79207      6.78183         0.006364      0.161590     -0.030232
O       3.85888      5.59653     10.94595         0.586535      0.740535     -0.344143
O       0.02497      5.97059     10.85012        -0.798619     -0.678639     -0.261890
O       3.87356      9.64984      2.51386        -0.443866      0.873340     -0.383836
O       3.93519      9.68283     14.97639        -0.540573      0.209853     -0.357587
O      15.55484      9.54808      2.43452         0.586540      0.658488     -0.383034
O       0.05418      9.72253     14.99412        -0.693279     -0.059573      0.234390
O       3.90649      9.83079      6.66569        -0.212751     -0.446967     -0.199570
O      15.56638      9.73898      6.63114         0.470588     -0.300326      0.034024
O       3.93073      9.86809     10.86443        -0.490762     -0.538348      0.146556
O       0.06444      9.50791     10.68745        -0.229522      0.212540      0.698220
O       7.83945      1.73843      2.52912        -1.656718      0.504853     -0.150205
O       7.91978      1.83798     14.96777        -0.478721      0.097724      0.048186
O       7.72377     13.71629      2.56697         0.466809     -0.645886     -0.327715
O       7.80478     13.70967     15.01247         0.313010     -0.362103     -0.523142
O       7.74172      2.03681      6.88276         0.071839     -0.858798     -0.618361
O       7.69754     13.78194      6.58609         1.241233     -0.217322     -0.302130
O       7.83181      1.83069     10.82939         0.379584     -0.051352      0.652837
O       7.78221     13.77376     10.88883         0.769132     -0.195058      0.060881
O       7.71955      5.94657      2.45140         0.905193     -0.418598     -0.348791
O       7.78926      5.93731     14.96275         0.756519     -0.593208      0.443498
O       7.80452      6.00671      6.75374        -0.084651     -0.720637      0.055701
O       7.81990      6.03910     10.80328         0.474421     -0.877990     -0.029262
O       7.74789      9.80583      2.39917         0.495377     -0.052664      0.068204
O       7.75497      9.75130     15.09982         0.953246     -0.043205     -0.652005
O       7.74491      9.70539      6.80722         0.497666      0.485478     -0.203225
O       7.79645      9.72298     10.81126         0.650666     -0.091687     -0.552804
O      11.57284      1.96876      2.61763         1.500116     -0.081800     -0.230993
O      11.72656      1.95530     15.06788         1.109891     -0.159303     -0.123372
O      11.69997     13.63915      2.53812         0.356672     -0.099882      0.078130
O      11.82703     13.48917     14.92470        -0.847334      0.258524      0.230126
O      11.61951      1.88684      6.69874         0.600643      0.271859      0.192944
O      11.65700     13.66489      6.83072        -0.127932      0.073628     -0.504325
O      11.74752      1.81729     10.80569        -0.688008      0.649485      0.115897
O      11.70456     13.50757     10.78045         0.094498      0.413572     -0.305507
O      11.59363      5.69548      2.56169         0.700082     -0.080162     -0.151266
O      11.72915      5.72466     15.00880         0.327002      0.144259      0.142973
O      11.67996      5.80705      6.70691        -0.348850      0.107688      0.095774
O      11.66533      5.84392     10.91106         0.362191     -0.466840     -0.096908
O      11.67294      9.73083      2.71630         0.129535     -0.105543     -0.791574
O      11.73569      9.83321     15.01353        -0.382379     -0.070716     -0.276096
O      11.70192      9.73271      6.48398         0.283858      0.041030      0.438252
O      11.70588      9.69965     10.78655         0.019429      0.053608      0.031425
O       1.99609      3.82846      2.42669        -0.287030      0.306810      0.057528
O       2.07403      3.88578     14.88969        -0.490353      0.519574      0.240676
O       1.77701      0.02298      2.40047         0.154897      0.897435      0.200225
O       1.94591      0.04369     14.78879         0.076001     -0.616715      0.758526
O      13.57281      3.81830      2.66828        -0.108181     -0.129874     -0.437646
O      13.64458      3.84681     14.98318         0.262616     -0.404615     -0.149035
O      13.60319      0.03426      2.57150        -0.012700     -0.292462     -0.130715
O      13.65622     15.55748     14.88937        -0.014862     -0.034969      0.546557
O       1.84026      3.77446      6.70225         0.252362      0.104348     -0.081640
O       2.08038     15.53176      6.67348        -0.267759      0.607885     -0.086028
O      13.62834      3.93790      6.88094        -0.283123     -1.117182     -0.689517
O      13.60901     15.57322      6.94170         0.020328      0.176730     -0.793794
O       1.90603      3.89244     10.97047        -0.204188     -0.589203     -0.214286
O       1.90035     15.53060     10.91061        -0.052769      0.285934     -0.444662
O      13.57385      3.82972     10.88678         0.366053      1.307904      0.066217
O      13.64659     15.53698     10.68418         0.279911     -0.229340      0.057922
O       1.92913      7.67240      2.54319        -0.195686      0.577980     -0.328613
O       1.78365      7.75757     14.99603         1.114799      0.014542     -0.055784
O      13.64380      7.75107      2.47404        -0.485171     -0.999881      0.030103
O      13.66474      7.75611     15.08600        -0.143379     -0.248967     -0.310648
O       2.04612      7.65229      6.75594        -0.019096      0.929741     -0.036632
O      13.66987      7.74937      6.61618        -0.338505      0.752599      0.295279
O       2.21833      7.63395     10.61686        -0.032736      1.798915      0.564486
O      13.65180      7.76410     10.87714        -0.274210     -0.071339     -0.073267
O       1.74300     11.64193      2.28821         0.767192      0.339605      0.737535
O       1.92282     11.72319     15.00308         0.138515     -0.187568      0.065912
O      13.68561     11.64900      2.46910        -0.316394      0.320679     -0.011196
O      13.82335     11.67882     15.09574        -0.237908     -0.206689     -0.341037
O       1.92203     11.66483      6.79523         0.318309     -0.064610     -0.651397
O      13.58718     11.68931      6.61270        -0.120400     -0.172117      0.124413
O       1.95679     11.66158     10.85745        -0.006584     -0.077077     -0.513876
O      13.56920     11.59449     10.79988         0.560534     -0.544769      0.009036
O       5.92280      3.87773      2.32495        -0.007942     -0.586095      0.366675
O       5.91722      3.82034     15.00659        -0.104740      0.116364     -0.131373
O       5.76402     15.57933      2.53291        -0.005703      0.399009     -0.242154
O       5.93551      0.02356     15.09838        -0.768539     -1.338935     -0.185139
O       5.92876      3.90521      6.71751         0.031270      0.019749      0.365129
O       5.74741      0.07140      6.61158        -0.110349     -0.601931     -0.237949
O       6.01434      3.86141     10.86628        -0.068488     -0.186568      0.103452
O       5.82348     15.59017     10.97309        -0.011318     -0.103757     -0.341478
O       5.80303      7.82064      2.33943         0.126581      0.173224     -0.071744
O       5.84787      7.75474     15.01545         0.049257      0.797841     -0.104707
O       5.85098      7.79840      6.61596        -0.585113     -0.338753      0.272917
O       5.72779      7.77847     10.92502        -0.483098      0.413336     -0.414520
O       5.71774     11.72383      2.57375         0.031525     -0.030822     -0.555684
O       5.85635     11.66366     14.92519        -0.122898      0.922823      0.111258
O       5.91474     11.74211      6.66298        -0.103949      0.110272     -0.120038
O       5.99621     11.78001     10.93199        -0.582901     -0.213925     -0.768189
O       9.56103      3.82524      2.50768         0.177782      0.763767     -0.197698
O       9.73524      3.84796     14.84843         0.019243      0.222335      0.475694
O       9.76760     15.56054      2.47785         0.251281     -0.679504      0.512976
O       9.90729     15.51267     14.86768         0.092733     -0.067355      0.594805
O       9.61962      3.87736      6.62482         0.514455      0.884282      0.190198
O       9.69183      0.00097      6.60919         0.113166     -0.231850      0.501102
O       9.66257      3.84599     10.94583         0.612277      0.708650     -0.298940
O       9.81560     15.52830     10.65049         0.143455      0.600102      0.729510
O       9.80483      7.74064      2.39053        -0.255723      0.359506      0.118442
O       9.89975      7.78501     15.04925        -0.392487      0.637120      0.171903
O       9.70167      7.84499      6.67296         0.816154     -0.587853      0.603197
O       9.87659      7.80214     10.91822        -0.572993     -0.266193     -0.756931
O       9.76313     11.64934      2.73383        -0.018140      0.351204     -0.876290
O       9.70923     11.68453     14.96156         0.017742      0.072137     -0.205259
O       9.76598     11.77327      6.64545        -0.286970     -0.877372     -0.080261
O       9.71829     11.72451     10.94414         0.020321     -0.963756     -0.770727
