  # total energy = -7886.12119735 
CRSYTAL
PRIMVEC
    15.6080000000000005    0.0000000000000000    0.0000000000000000
     0.0000000000000000   15.6080000000000005    0.0000000000000000
     0.0000000000000000    0.0000000000000000   16.6239999999999988
PRESSURE
-1.00407 -0.943708 -0.504512 -0.045853 -0.014858 -0.006097
PRIMCOORD
320 1
Pb       3.90585      3.90098      4.13194        -0.283376     -0.111301      0.142635
Pb       3.91682      3.92189      0.00483        -0.143297     -0.145644     -0.217685
Pb       3.88218     15.59191      4.11002         0.100175     -0.033408      0.132918
Pb       3.86093     15.58703     16.59587        -0.005803     -0.022196      0.023609
Pb      15.60479      3.87346      4.11440         0.277339      0.072690      0.515585
Pb      15.56858      3.87287     16.60580         0.012378      0.102082     -0.146657
Pb      15.57060     15.59193      4.08960         0.167546     -0.146688      0.766450
Pb      15.57361     15.57825     16.60203         0.019256      0.236164     -0.357656
Pb       3.85179      3.88012      8.29373        -0.084666     -0.290911      0.052243
Pb       3.88580     15.60422      8.30016         0.023214     -0.128760     -0.254144
Pb      15.58037      3.87137      8.27678         0.187055     -0.237900      0.081010
Pb       0.01211     15.58770      8.26575        -0.163646     -0.213124      0.048187
Pb       3.89075      3.89439     12.42536        -0.009332      0.135589     -0.122192
Pb       3.87186     15.56449     12.40518         0.179608     -0.342858      0.366364
Pb      15.58168      3.86059     12.44411         0.345448     -0.225788     -0.373852
Pb      15.57340      0.03482     12.46369         0.121733     -0.015212     -0.021859
Pb       3.87458      7.79538      4.16647        -0.366146     -0.340572     -0.009775
Pb       3.86554      7.77518     16.61259         0.236089      0.039031     -0.487125
Pb       0.02444      7.79845      4.14300        -0.043734      0.038799     -0.211136
Pb      15.59976      7.77960     16.60725        -0.129891     -0.117558      0.154175
Pb       3.92469      7.76897      8.23354        -0.058559      0.211637      0.369632
Pb      15.55750      7.78575      8.32055         0.181007      0.033362      0.075635
Pb       3.88803      7.80081     12.44788         0.028614     -0.052282     -0.182660
Pb      15.60000      7.80054     12.46214        -0.318430      0.265350     -0.057957
Pb       3.87504     11.68213      4.11978         0.131753      0.333565     -0.161694
Pb       3.89010     11.66204     16.56701        -0.036008      0.213057     -0.110468
Pb      15.58811     11.67804      4.12224         0.186259     -0.049593     -0.103465
Pb      15.58247     11.70893     16.58162         0.117508     -0.314416      0.207572
Pb       3.86785     11.67778      8.25099        -0.107692     -0.120950      0.185312
Pb      15.58213     11.66997      8.29312         0.048423      0.433657      0.260793
Pb       3.91739     11.68630     12.41990        -0.345506      0.042686     -0.091889
Pb       0.01852     11.65915     12.41085        -0.130319     -0.036908     -0.104935
Pb       7.80420      3.86464      4.13987        -0.223183      0.014115      0.050295
Pb       7.80514      3.90496      0.00532         0.050438      0.242522     -0.377912
Pb       7.79699     15.56303      4.09842        -0.348792      0.222189      0.336803
Pb       7.80938      0.02026     16.61434         0.092643     -0.264927      0.145456
Pb       7.74450      3.90142      8.28518         0.514528      0.015472      0.118057
Pb       7.79183     15.57457      8.29941         0.134648     -0.034224     -0.219541
Pb       7.77033      3.87146     12.43571        -0.377284      0.141663     -0.499612
Pb       7.76960     15.58545     12.45375        -0.265430     -0.180455      0.107692
Pb       7.77437      7.79745      4.13611        -0.047948      0.080972      0.046911
Pb       7.81316      7.82551     16.60331        -0.405110      0.001193     -0.328832
Pb       7.78960      7.78056      8.27759        -0.324151     -0.059460     -0.178555
Pb       7.82195      7.74846     12.39938        -1.033712     -0.180860      0.741966
Pb       7.83077     11.68479      4.16614        -0.703561     -0.139548     -0.342065
Pb       7.77196     11.68188     16.61482        -0.143645     -0.265363     -0.196406
Pb       7.75127     11.70090      8.24583         0.139085      0.014289      0.157773
Pb       7.77165     11.64668     12.43006        -0.105757      0.260655      0.238171
Pb      11.69807      3.90230      4.14898        -0.125634     -0.204889      0.648264
Pb      11.70778      3.92595     16.62075        -0.116418     -0.216464     -0.568530
Pb      11.64053     15.57574      4.12045         0.201933      0.002684     -0.016090
Pb      11.66129     15.58040     16.62026         0.027308      0.147909     -0.036462
Pb      11.71919      3.90611      8.28317        -0.780729      0.224500      0.320269
Pb      11.68677      0.01145      8.26585        -0.253225     -0.330834      0.371092
Pb      11.73083      3.87254     12.46221        -0.370030     -0.082516     -0.028436
Pb      11.73632     15.57958     12.43883        -0.195424     -0.176456     -0.236211
Pb      11.68682      7.71550      4.10341         0.391329      0.636458      0.098210
Pb      11.62419      7.78213     16.59894        -0.026996     -0.062941      0.137186
Pb      11.66451      7.82126      8.25542         0.192985     -0.103678      0.189173
Pb      11.66078      7.78748     12.47244         0.444539      0.314202      0.079559
Pb      11.65743     11.62868      4.15509         0.208016     -0.302859     -0.385525
Pb      11.71361     11.70725     16.58503        -0.488000     -0.232756      0.079047
Pb      11.75917     11.72725      8.29631        -0.151353     -0.021142      0.165609
Pb      11.67786     11.71736     12.44143         0.052933      0.049211     -0.820466
Ti       1.93517      1.98885      2.20277         0.215441     -0.451924     -0.270779
Ti       1.91645      1.98696     14.69702         0.473604     -0.923430     -0.539085
Ti       1.87348     13.69057      2.20760         1.302229     -0.343029     -0.014391
Ti       1.85690     13.63728     14.73819         0.870579      0.220205     -0.777750
Ti      13.62714      1.93102      2.25829         0.276321     -0.751096      0.244587
Ti      13.66964      1.89519     14.62973        -0.754918      0.018309      0.519734
Ti      13.68157     13.62013      2.19339        -0.918081      0.146697      0.696706
Ti      13.60797     13.59082     14.65684         0.360955      0.774249     -0.086141
Ti       1.90696      1.84853      6.35625        -0.007076      0.693322     -0.320973
Ti       1.96992     13.63258      6.41141        -0.695606     -0.313668     -0.374915
Ti      13.55319      1.98088      6.40982         0.998059     -0.586423      0.242586
Ti      13.58874     13.67282      6.38129         0.785828     -0.094866      0.634391
Ti       1.99617      1.83725     10.54428        -0.844053      1.465592     -0.701482
Ti       1.88220     13.60353     10.53677         1.011502     -0.209220     -0.432685
Ti      13.57971      1.94294     10.45667         0.858772     -0.111467      0.628577
Ti      13.65083     13.66330     10.55193        -0.375917     -0.427604     -0.648126
Ti       1.87858      5.86253      2.18120         0.400366     -0.083306      0.463548
Ti       1.93663      5.84720     14.63027         0.380762     -0.013578     -0.013085
Ti      13.56219      5.74662      2.30362         1.153434      1.554760     -0.745586
Ti      13.66795      5.83675     14.69861         0.081259      0.037165     -0.436869
Ti       1.93748      5.79889      6.44690        -0.124192      0.127677     -1.144813
Ti      13.66463      5.84581      6.46445        -0.620001      0.062978     -1.218542
Ti       1.79145      5.90481     10.54729         1.104450     -1.007735      0.168455
Ti      13.55226      5.85336     10.63560         0.318914      0.503401     -0.750140
Ti       1.97553      9.76053      2.21220        -0.748582     -0.168776     -0.392206
Ti       1.86957      9.73013     14.72913         1.039916     -0.023810     -0.384185
Ti      13.62191      9.75217      2.11445         0.381380     -0.695736      0.227195
Ti      13.64822      9.74656     14.75244        -0.244602     -0.688159     -0.818256
Ti       1.91481      9.71504      6.39030         0.377351     -0.167124      0.256369
Ti      13.70524      9.69711      6.38656        -1.094380      0.341065      0.453793
Ti       1.91265      9.71699     10.51387         0.636664      0.525926     -0.338082
Ti      13.64387      9.75438     10.44716         0.026543     -0.046843      0.940268
Ti       5.84177      1.94589      2.23019        -0.255197     -0.229567     -0.039326
Ti       5.80126      1.86565     14.75573        -0.582937      0.367158     -0.927397
Ti       5.82634     13.63234      2.23324        -0.658113     -0.250449      0.020363
Ti       5.83935     13.62137     14.65133        -0.324240      0.001606     -0.326822
Ti       5.81990      1.96031      6.38459         0.328695     -1.010391     -0.460633
Ti       5.86731     13.65416      6.37714        -0.340019      0.298459     -1.298492
Ti       5.84118      1.87321     10.49705        -0.534711      0.809112      0.008609
Ti       5.84696     13.61636     10.43368        -0.796086      0.159218      0.412025
Ti       5.74163      5.85957      2.20407         0.226448     -0.778535      0.320182
Ti       5.84251      5.79248     14.66732        -0.687843      0.953505      0.363848
Ti       5.83613      5.75483      6.37561        -0.057994      1.085918     -0.150557
Ti       5.74029      5.85153     10.47764         0.308509     -0.482763      0.174181
Ti       5.81009      9.68278      2.15658         0.341723      0.900811      0.829342
Ti       5.81592      9.76539     14.64317        -0.132406     -0.896148      0.447093
Ti       5.84035      9.74561      6.31878        -0.345987     -0.421999      0.851970
Ti       5.86779      9.76930     10.53176        -1.214898     -0.749670     -0.442585
Ti       9.76898      1.96591      2.24171        -0.539084     -1.011893     -0.149747
Ti       9.70978      1.87651     14.68836         1.011576      0.563102      0.575696
Ti       9.72723     13.59959      2.21433         0.316565      0.442839      0.043281
Ti       9.70939     13.59538     14.69404         0.188683      0.438472     -0.209361
Ti       9.69346      1.90234      6.43010        -0.197356      0.782740      0.092248
Ti       9.70119     13.62011      6.31699         0.158208      0.343418      1.478773
Ti       9.68098      1.92238     10.58212         0.752802     -0.111803     -1.053126
Ti       9.63941     13.66062     10.56877         1.430420     -0.373066     -0.441956
Ti       9.66788      5.79420      2.22244         0.197203      0.590793     -0.825183
Ti       9.74907      5.85021     14.69645         0.022707     -0.386421      0.161861
Ti       9.70902      5.89951      6.34967         0.413183     -1.298607      0.124257
Ti       9.73150      5.89009     10.52922        -0.723415     -0.885366      0.505005
Ti       9.68651      9.66663      2.23488         0.642414      0.671440     -0.170346
Ti       9.71713      9.75715     14.64454        -0.357044     -0.455689      0.639114
Ti       9.71078      9.74423      6.43108         0.691497     -0.211214     -0.620905
Ti       9.68170      9.69033     10.60494         0.838957      1.307699     -0.551650
O       1.88865      2.04911      0.39722         0.127922     -0.257355      0.489712
O       1.84009      1.83059     12.89804         0.415816      0.373391      0.098754
O       1.99776     13.68146      0.41853        -0.362713     -0.246231     -0.022086
O       1.94357     13.65414     12.95627        -0.094583     -0.159261     -0.313929
O      13.59570      1.89269      0.50630         0.178879      0.067159     -0.250666
O      13.54150      1.89239     12.85491         0.326881      0.335106      0.288492
O      13.63637     13.71230      0.43693         0.270781     -0.201709     -0.410549
O      13.71381     13.63837     12.89225        -0.388730     -0.326918     -0.177371
O       2.02446      1.95095      4.57495        -0.392063     -0.338219      0.101044
O       1.76976     13.57127      4.61257         0.559692      0.022738      0.485571
O      13.60851      2.08956      4.64849        -0.013765     -0.222103     -0.345142
O      13.72524     13.70477      4.62039        -0.233455     -0.559481      0.058966
O       2.00488      1.90023      8.71102        -0.168234      0.034923      0.622872
O       1.96379     13.61606      8.77027         0.167415      0.191875     -0.297917
O      13.69684      1.97500      8.67420        -0.256678     -0.231755      0.471603
O      13.59655     13.59034      8.76686         0.001127      0.490678      0.060348
O       1.89371      5.76348      0.39889        -0.054453      0.008923      0.361625
O       1.99465      5.88310     12.84463        -0.290340      0.041799      0.425018
O      13.73743      5.80330      0.53047        -0.288000     -0.304783     -0.297217
O      13.60942      5.90129     12.89028        -0.100425     -0.315306      0.243926
O       1.97122      5.90971      4.66265        -0.091504     -0.439845     -0.082756
O      13.59592      5.83058      4.64069        -0.079009     -0.035576     -0.047328
O       1.77734      5.91711      8.74981         0.258770     -0.397030     -0.111096
O      13.61597      5.81319      8.86215         0.036345      0.089862     -0.658439
O       2.05067      9.68071      0.42602        -0.509861      0.259275      0.158265
O       1.98761      9.85049     12.94553        -0.406323     -0.341855      0.023762
O      13.85773      9.78085      0.31763        -1.169104     -0.079317      0.652203
O      13.75175      9.78183     12.96306        -0.307573     -0.125723      0.318559
O       1.93752      9.63456      4.60565        -0.172645      0.310455     -0.170434
O      13.53459      9.65205      4.63625         0.425121      0.434564     -0.276210
O       1.85878      9.75388      8.74085         0.287199     -0.521342     -0.112094
O      13.69731      9.72914      8.68343        -0.329640     -0.022447      0.035184
O       5.74202      1.84744      0.43509         0.700900      0.202692      0.136234
O       5.83071      1.93074     12.95458         0.183691     -0.173933      0.312455
O       5.72261     13.61534      0.42612         0.489432     -0.134884      0.571583
O       5.85777     13.71113     12.87002         0.155431     -0.248007     -0.104021
O       5.90363      1.85913      4.60972        -0.236790      0.392865     -0.176060
O       5.91819     13.57173      4.54270        -0.117451      0.153727      0.449911
O       5.83367      1.88951      8.70385        -0.057125      0.106566      0.337296
O       5.95048     13.65793      8.64369        -0.187543     -0.276206      0.468895
O       5.71158      5.84698      0.44333         0.241289     -0.150423     -0.124851
O       5.71360      5.80528     12.89810         0.448502     -0.011482      0.108538
O       5.76753      5.75533      4.57954         0.427559      0.363045      0.244590
O       5.82596      5.67538      8.67078         0.072798      0.507983      0.758594
O       5.90382      9.80520      0.40381        -0.375185     -0.035635      0.135989
O       5.79306      9.79665     12.85256        -0.031004     -0.241550      0.245161
O       5.95808      9.64187      4.57975        -0.581093     -0.015570     -0.477534
O       5.82441      9.77399      8.74370         0.457084     -0.005406      0.099649
O       9.74599      1.70371      0.46128        -0.035228      0.843583      0.479867
O       9.75653      1.87822     12.91077        -0.110649      0.199982     -0.070737
O       9.75809     13.65927      0.43242         0.033773     -0.180251     -0.024571
O       9.74943     13.64673     12.91470         0.060621     -0.173033      0.047893
O       9.75917      2.03051      4.67297        -0.053405      0.016766     -0.679033
O       9.70040     13.61368      4.57339         0.133926     -0.008909     -0.598751
O       9.80486      1.86422      8.79426        -0.545965     -0.117334      0.301570
O       9.68007     13.74768      8.79583        -0.026959     -0.317183     -0.034520
O       9.75857      5.83291      0.41104        -0.048054      0.020192      0.414507
O       9.86467      5.84034     12.90332        -0.576416     -0.120187      0.696785
O       9.60317      5.80167      4.54991         0.766505      0.078369      0.242353
O       9.72453      5.87669      8.78324        -0.073536      0.359571     -0.140892
O       9.78450      9.74100      0.46410        -0.380785      0.120720      0.054450
O       9.64094      9.65884     12.86976         0.513589      0.413051      0.230188
O       9.68471      9.67329      4.64005         0.213343      0.439015     -0.193326
O       9.69689      9.70006      8.82823        -0.330720     -0.403726     -0.464455
O       3.95101      2.00574      2.54447        -0.629631     -0.448292     -0.034820
O       3.90967      1.89386     15.03450        -0.697110      0.356695      0.011477
O       3.82571     13.59923      2.63445         0.195269     -0.039275     -0.163014
O       4.00724     13.49013     14.86810        -1.377488     -0.073491      0.594156
O      15.56630      1.84311      2.56322         0.630856      0.894758     -0.160819
O       0.01346      1.91790     14.97260        -0.328347     -0.089291      0.228201
O      15.58687     13.57802      2.60478         0.123898      0.357274     -0.624277
O      15.54353     13.72667     14.99533         0.573990     -0.676511      0.343082
O       3.94274      1.87023      6.64155        -0.560871      0.300011      0.355025
O       3.91322     13.65900      6.67897        -0.190400     -0.290851      0.036084
O      15.57933      1.75419      6.67720         0.189026      1.071496     -0.180972
O       0.08146     13.61990      6.87010        -0.970368     -0.008067     -0.617889
O       3.86290      1.95521     10.81039         0.535409     -0.164491      0.262787
O       3.89022     13.64524     10.73634         0.726269     -0.139908      0.435768
O      15.56154      2.01475     10.89825         0.148574     -0.127214     -0.281724
O       0.05311     13.60855     10.80968        -0.905178      0.471311      0.357227
O       3.82206      5.78919      2.61619         0.599102      0.201507     -0.508780
O       3.85413      5.99571     15.01134         0.050399     -0.750097     -0.020717
O      15.59145      5.92273      2.62885         0.091005     -0.568136     -0.182626
O       0.02687      5.86713     14.93943        -0.763068     -0.411136      0.197299
O       3.92970      5.80446      6.72782        -0.814379     -0.152743      0.082130
O      15.53863      5.72679      6.63681         0.224867      0.062945      0.477634
O       3.88360      5.91324     10.77839        -0.245961     -0.276684     -0.087973
O      15.50060      5.86070     10.85962         0.526749     -0.090364      0.334492
O       3.86442      9.71640      2.57917         0.577155     -0.144755     -0.092032
O       3.86764      9.69146     15.01401         0.252608      0.547724     -0.046698
O      15.59365      9.71163      2.50044         0.068723     -0.060153      0.208950
O      15.58929      9.75278     15.07446        -0.041348     -0.282263     -0.328329
O       3.83814      9.71532      6.69342         0.397738     -0.234212     -0.118327
O      15.59317      9.70594      6.74559        -0.065873      0.169910     -0.536717
O       3.88730      9.68959     10.78239         0.019420      0.274253      0.308927
O       0.00917      9.67699     10.78761        -0.514257      0.356309      0.461141
O       7.79149      1.90610      2.64357         0.144120      0.061242     -0.701662
O       7.82094      1.87452     15.06967        -0.412332      0.137466     -0.098799
O       7.78974     13.69302      2.47980        -0.158037     -0.254948     -0.100866
O       7.83940     13.58917     14.94245        -0.176399      0.549873      0.510730
O       7.78225      1.93797      6.68125        -0.131406      0.239718      0.403985
O       7.81326     13.70161      6.69678         0.077921     -0.938852     -0.061629
O       7.72737      1.86608     10.89516         0.588386      0.163057     -0.103747
O       7.78750     13.56230     10.85337        -0.747822      0.526743      0.031096
O       7.85360      5.85811      2.57301        -1.222830     -0.056574     -0.443923
O       7.76767      5.88033     15.06271        -0.057289     -0.467441     -0.401272
O       7.81761      5.78476      6.72072        -0.583831      0.467327     -0.055041
O       7.77454      5.84938     10.88602         0.021989     -0.343766      0.048884
O       7.74548      9.71633      2.52486         0.482210     -0.039825     -0.007861
O       7.80174      9.74336     15.04182         0.310358     -0.096020     -0.103093
O       7.76629      9.63826      6.59712         0.118200      0.413729      0.781575
O       7.74038      9.73375     10.97493         0.265934     -0.257505     -0.595613
O      11.66778      2.00416      2.68404         0.452200     -0.175412     -0.578560
O      11.70798      2.01367     15.05432        -0.044992     -0.258881     -0.222087
O      11.71401     13.76523      2.50987         0.039557     -0.703244      0.165286
O      11.72127     13.62653     15.02292         0.037997     -0.137150     -0.074598
O      11.66274      1.87909      6.71935         0.298305     -0.016734      0.019173
O      11.64044     13.64781      6.70478         0.298202      0.124601     -0.275028
O      11.74378      1.86805     10.74896        -0.895108     -0.077348      0.483945
O      11.69190     13.66008     10.85259        -0.039373     -0.390131      0.387872
O      11.68561      5.83144      2.55613        -0.109159     -0.455024      0.014538
O      11.74752      5.75639     14.99941        -0.533067     -0.023071      0.261725
O      11.68533      5.90864      6.77861        -0.215443     -0.251540     -0.318000
O      11.61152      6.00312     10.89847         0.308814     -0.550275     -0.077400
O      11.65408      9.87794      2.55126         0.295370     -0.337764     -0.196570
O      11.62024      9.66967     15.07161         0.832984      0.401379     -0.325883
O      11.66792      9.66372      6.71760        -0.024412      0.353895      0.096581
O      11.73434      9.78119     10.85611        -0.659774     -0.065592      0.158681
O       2.02485      3.82794      2.61898        -0.968804      0.961227     -0.373166
O       2.02238      3.84316     14.89437        -0.302398      0.851913      0.120066
O       1.97794      0.01597      2.44415        -0.185347     -0.282192      0.285266
O       1.96736     15.53375     14.98057         0.069989      0.349116      0.513110
O      13.73938      3.86442      2.58020        -0.445091      0.196174     -0.178511
O      13.78335      3.82871     15.04069        -0.513573      0.607683     -0.218056
O      13.74818     15.57904      2.63117        -0.802552      0.232879     -0.397751
O      13.72284     15.59326     14.90575        -0.474734      0.088092      0.369024
O       1.88915      3.81670      6.67153         0.191746      0.215292      0.378838
O       1.95334     15.55670      6.66653         0.277332      0.005833      0.206909
O      13.54738      3.89210      6.79649         0.374944     -0.149765     -0.351457
O      13.68761     15.57519      6.69321        -0.553141     -0.104128      0.096580
O       2.03479      3.99357     10.93462        -0.842401     -0.476180     -0.434933
O       1.99024      0.02978     10.80332        -0.380727     -0.904557      0.170963
O      13.51804      3.90867     10.87272         0.144815     -0.219448      0.098652
O      13.66489     15.54749     10.90326         0.164619      0.930685     -0.344173
O       1.99437      7.75000      2.49250        -0.240439      0.095047      0.099905
O       1.80772      7.76539     14.97198         0.413114      0.469379      0.081219
O      13.53210      7.87424      2.43588         0.004860     -0.660675      0.362550
O      13.51336      7.73086     15.02792         0.823289      0.340642      0.077065
O       1.82929      7.68588      6.63290         0.285843      1.100706      0.620649
O      13.64923      7.77876      6.70096         0.220233     -0.214801      0.307330
O       1.86867      7.81110     10.93907         0.189671     -0.192005     -0.170530
O      13.59768      7.84940     10.79364         0.185867     -0.332374      0.429666
O       1.91045     11.68698      2.50447         0.022699     -0.227695      0.091327
O       1.89362     11.67126     15.05734        -0.077047      0.281317      0.210465
O      13.68286     11.65814      2.47559        -0.217151      0.858667      0.280092
O      13.70520     11.64955     15.00481        -0.522012      0.799427      0.074207
O       1.98404     11.62136      6.81074        -0.270400      0.381133     -0.747493
O      13.62437     11.70752      6.79793         0.041373     -0.204410     -0.796861
O       1.96175     11.69123     10.82355        -0.063047     -0.353604      0.278841
O      13.74456     11.74105     10.77533        -0.358293     -0.883688      0.515280
O       5.84985      3.89326      2.46131         0.294733     -0.166726      0.188502
O       5.77994      3.91250     15.05367         0.348639     -0.177480     -0.010523
O       5.74772     15.54834      2.56997         0.409311      0.082613     -0.244681
O       5.66575     15.59083     15.00890         1.261042     -0.524425     -0.009675
O       5.88227      3.90294      6.67304        -0.227938     -0.814558     -0.039958
O       5.84975     15.51661      6.61400         0.091137      1.027851      0.355785
O       5.82167      3.82614     10.87799         0.143505      0.221446     -0.097597
O       5.77527     15.55454     10.83494         0.457890      0.178562     -0.196280
O       5.86399      7.71898      2.51211        -0.312114      0.795313      0.040607
O       5.76739      7.84207     15.14308         0.741077     -0.323774     -0.685881
O       5.76250      7.80482      6.78768         0.562250     -0.518364     -0.449508
O       5.76775      7.73377     10.79100         0.727797      0.602285     -0.048598
O       5.78477     11.59922      2.60097         0.284173      0.637803     -0.320016
O       6.02126     11.65457     14.93614        -0.674213      0.250023      0.247834
O       5.81290     11.69280      6.58367         0.343106     -0.687077      0.429567
O       5.88406     11.68746     10.80448        -0.199074      0.293112      0.005788
O       9.68377      3.88827      2.41955         0.251863     -0.354819      0.240184
O       9.73252      3.90937     15.14351        -0.293683     -0.486419     -0.442343
O       9.79277      0.03063      2.60821        -0.225042     -0.433376      0.068020
O       9.81713     15.57461     15.07172        -0.330045     -0.009258     -0.475200
O       9.77004      3.92305      6.83104        -0.030753     -0.244532     -0.438083
O       9.59327     15.59229      6.69197         0.928708     -0.313648     -0.233860
O       9.72212      3.82153     10.80564         0.088761      0.648902      0.471879
O       9.70617     15.56724     10.89387        -0.131127      0.245012      0.262479
O       9.79042      7.80650      2.44114        -0.052526     -0.434449      0.503930
O       9.65408      7.77091     15.05190         0.698491     -0.107064     -0.284689
O       9.72547      7.76358      6.65310        -0.224318      0.291856      0.430051
O       9.57895      7.80267     10.98930         1.023449     -0.282227     -0.850814
O       9.72925     11.71637      2.61438        -0.093536      0.152431     -0.202529
O       9.81802     11.66345     15.01009        -0.171359      0.188185     -0.117645
O       9.75785     11.66262      6.78620        -0.405545      0.288451     -0.517417
O       9.68112     11.64114     10.82926         0.186165      0.260455      0.482947
