  # total energy = -7880.47670523 
CRSYTAL
PRIMVEC
    15.6080000000000005    0.0000000000000000    0.0000000000000000
     0.0000000000000000   15.6080000000000005    0.0000000000000000
     0.0000000000000000    0.0000000000000000   16.6239999999999988
PRESSURE
0.014369 -0.146982 0.575611 -0.317357 -0.136756 0.009062
PRIMCOORD
320 1
Pb       3.96546      3.95518      4.15775        -0.204516      0.210848     -0.050305
Pb       4.02029      4.04517      0.09530        -0.568379     -0.771283     -0.618769
Pb       3.88903      0.00671      4.05401        -0.461251      0.060840      0.190985
Pb       3.79482     15.57531     16.60208         0.537443      0.206505      0.278910
Pb       0.06381      3.84981      4.10662        -0.481978      0.198092      0.947812
Pb      15.49723      3.84809      0.00599         0.239068     -0.090245     -0.280253
Pb      15.52822     15.59566      4.01223         0.831755     -0.541689      0.677171
Pb      15.51795     15.55930     16.60128         0.317812      0.161479     -0.278969
Pb       3.73853      3.84726      8.32495         0.474243     -0.423374      0.120765
Pb       3.89753      0.04023      8.32880        -0.696782      0.144643     -0.112225
Pb      15.56373      3.82533      8.25943         0.197916     -0.158553      0.446816
Pb       0.10262     15.57124      8.20385        -0.376705      0.401353      0.948993
Pb       3.91793      3.94185     12.37208        -0.228866     -0.475276      0.382319
Pb       3.84813     15.46243     12.31245         0.067071      0.436872      0.264167
Pb      15.58056      3.78194     12.43706         0.185316      0.380732     -0.210638
Pb      15.53458      0.21143     12.53748         0.517217     -0.658434     -0.714751
Pb       3.83176      7.82467      4.29048        -0.039197     -0.243796     -0.838157
Pb       3.82593      7.74765      0.01509         0.086845      0.223311     -0.203839
Pb       0.17151      7.85686      4.18908        -0.510455      0.040812      0.152665
Pb       0.01776      7.75291      0.02067         0.033328      0.214612     -0.287104
Pb       4.05364      7.72808      8.09257        -1.065752     -0.197342      1.374092
Pb      15.46945      7.78165      8.45104         0.574362     -0.216025     -0.209618
Pb       3.90981      7.85550     12.45730        -0.347828     -0.162252     -0.153025
Pb       0.00612      7.88195     12.54345         0.015583      0.393313     -0.029672
Pb       3.86177     11.67846      4.08987        -0.242264     -0.062339      0.542721
Pb       3.91113     11.60131     16.46556        -0.099417      0.641154      0.841030
Pb      15.59184     11.65330      4.10040        -0.111160      0.352215     -0.147158
Pb      15.56445     11.77410     16.55131        -0.200268     -0.203025      0.515297
Pb       3.82601     11.64525      8.14177         0.420818      0.076911      0.115958
Pb      15.56089     11.63878      8.32541         0.205533      0.091721     -0.116860
Pb       4.01407     11.69370     12.35656        -0.430931     -0.091113      0.146301
Pb       0.13168     11.56642     12.32532        -0.700423      0.193942      0.540967
Pb       7.86011      3.80191      4.18097        -0.306598      0.055529     -0.112641
Pb       7.86702      3.98467      0.08840        -0.821272     -0.708866     -0.554761
Pb       7.81940     15.49044      4.01464        -0.798990     -0.085680      0.540927
Pb       7.89120      0.13018      0.05728        -0.741825     -0.679789     -0.126864
Pb       7.64200      3.96694      8.29931        -0.033254     -0.317514      0.321656
Pb       7.82591     15.52656      8.34063         0.369656      0.293524     -0.123490
Pb       7.70291      3.84193     12.40266         0.010008     -0.187807      0.577413
Pb       7.70912     15.56695     12.51197        -0.168173      0.294644      0.289477
Pb       7.73286      7.84532      4.16572         0.094822     -0.332404     -0.338170
Pb       7.87522      7.95647     16.60469        -0.576818     -0.441742     -0.214382
Pb       7.79181      7.77167      8.25797         0.065848      0.090755      0.400721
Pb       7.87991      7.62197     12.31262        -0.723572      0.776906      1.048912
Pb       7.94820     11.67448      4.27665        -0.592696      0.177280     -0.282648
Pb       7.71970     11.66020      0.03786        -0.084301      0.344477     -0.601700
Pb       7.64632     11.73850      8.13307         0.591406     -0.597636      0.381920
Pb       7.72057     11.53688     12.41180        -0.168707      0.284362      0.321423
Pb      11.73275      3.94811      4.26305        -0.016459     -0.214916     -0.148199
Pb      11.77687      4.04527      0.05115        -0.030030     -0.728912      0.523484
Pb      11.51059     15.53032      4.11577         1.212316     -0.018853      0.915033
Pb      11.58434     15.55385      0.06883         0.356432     -0.013278     -0.423660
Pb      11.77408      4.00518      8.31137        -0.317351      0.016034      0.526545
Pb      11.66190      0.08976      8.23083        -0.108351     -0.724670      0.652349
Pb      11.84408      3.83392     12.55034        -0.990784      0.168819     -0.046053
Pb      11.88025     15.54524     12.42466        -1.061468      0.072860     -0.062166
Pb      11.71177      7.52833      4.03046        -0.225896      0.571991      0.361791
Pb      11.42735      7.77426     16.61162         1.345419      0.143142      0.708378
Pb      11.58993      7.92733      8.18620        -0.143481     -0.707037      0.994395
Pb      11.59949      7.82403     12.58774        -0.348292      0.314074     -0.170890
Pb      11.58194     11.42357      4.22786         0.841162      0.337544     -0.350036
Pb      11.77797     11.76555     16.54738        -0.228112     -0.496869     -0.033968
Pb      11.98371     11.86118      8.33820        -1.257299     -0.052446      0.255267
Pb      11.65466     11.82004     12.41585         0.162149     -0.594801      0.293568
Ti       1.98468      2.10833      2.16275        -0.073482     -1.041651     -0.490918
Ti       1.93797      2.01328     14.64574         0.262369      0.087510      0.303432
Ti       1.95902     13.73141      2.13162        -0.659850     -0.253654      0.799267
Ti       1.92439     13.65458     14.66655        -0.107020     -0.144117      0.322018
Ti      13.66282      1.90472      2.37058        -0.310296      0.646757     -0.710518
Ti      13.58522      1.89284     14.64757         0.488796      0.146346      0.127574
Ti      13.62243     13.63496      2.17281         0.283870     -0.919340      1.570394
Ti      13.62646     13.62454     14.56030         0.179142     -0.184775      0.803780
Ti       1.90476      1.83060      6.25255         0.191687      0.242984      0.611412
Ti       1.92400     13.54464      6.47828         0.111262      0.237198     -1.344860
Ti      13.55766      1.97233      6.43647         0.300324     -0.264212      0.211561
Ti      13.65079     13.72135      6.43064        -0.047090     -0.196564     -0.342872
Ti       1.96635      1.88574     10.56603        -0.194734     -0.309308     -0.971279
Ti       1.91780     13.55108     10.47802        -0.325445      1.062861     -0.263334
Ti      13.59040      1.99133     10.43034         0.478161     -0.521613      0.017584
Ti      13.66103     13.68564     10.58699         0.603976     -0.129891     -0.985692
Ti       1.81438      5.89011      2.18375         0.847438      0.085880      0.280394
Ti       1.98360      5.89340     14.52344        -0.123657     -0.218145     -0.225915
Ti      13.63778      5.79370      2.33738        -0.497522      0.047925     -0.664100
Ti      13.73706      5.83663     14.65787        -0.190912     -0.111483      0.566674
Ti       1.85502      5.73651      6.49197         0.325490      0.591718     -0.761214
Ti      13.63294      5.86056      6.48527         0.152665      0.163187     -0.851336
Ti       1.68116      5.87870     10.58878         0.859662     -0.265926      0.314656
Ti      13.41251      6.02019     10.68485         1.476602     -0.887562     -1.218564
Ti       1.96821      9.77110      2.16006        -0.088433     -0.249896     -0.388276
Ti       1.88464      9.79785     14.76139         0.069156     -0.450401     -0.357903
Ti      13.64183      9.67477      2.07799        -0.214698      0.657322      0.269781
Ti      13.63729      9.66880     14.81058         0.052330      0.713330     -1.074275
Ti       1.92029      9.61148      6.42146        -0.492158      0.089231      0.502044
Ti      13.66223      9.72459      6.41132         0.129278      0.036121      0.016602
Ti       1.96595      9.69091     10.42590        -0.400465      0.189757     -0.108683
Ti      13.62458      9.76691     10.42627        -0.336929      0.852473      1.607822
Ti       5.84639      1.91468      2.25694         0.024602     -0.199126     -0.589853
Ti       5.72533      1.80635     14.85140         0.953780      0.426296     -1.278507
Ti       5.76478     13.56533      2.27017         0.632621      0.362792     -0.809972
Ti       5.79274     13.55721     14.52866         0.475807      0.430641      1.461441
Ti       5.79648      1.86401      6.28390        -0.114573      1.074338      1.083898
Ti       5.87552     13.74970      6.26243        -0.580011     -2.172777     -1.096038
Ti       5.84076      1.88739     10.44400        -0.424419      0.250561     -0.120863
Ti       5.86400     13.61100     10.28836        -0.500848     -0.032605      3.084344
Ti       5.69199      5.85038      2.18686         0.136972      0.597909      0.275920
Ti       5.81166      5.84704     14.70699         0.340316     -0.529103      0.176877
Ti       5.84804      5.73129      6.39039        -0.273286     -0.520415     -1.000953
Ti       5.61350      5.83220     10.44893         0.718673     -0.225726     -0.689488
Ti       5.84293      9.75802      2.19071        -0.218785     -0.654814      0.434006
Ti       5.78904      9.69669     14.64926         0.657083      0.169804     -0.621751
Ti       5.89244      9.67269      6.26497        -0.259249      0.949523      1.395269
Ti       5.80463      9.71011     10.42050         0.356618     -0.212607      0.062556
Ti       9.78222      1.89232      2.34559        -0.171868      0.797795     -1.459931
Ti       9.81583      1.88485     14.74537        -0.949068     -0.135435      0.188418
Ti       9.75063     13.58323      2.20114        -0.285051     -0.682190      0.520885
Ti       9.69302     13.60386     14.69381        -0.168150      0.144623      0.381395
Ti       9.61452      2.02198      6.54047         0.714426     -0.366289     -1.241869
Ti       9.72773     13.65605      6.32409         0.106343     -0.084021      1.438290
Ti       9.72898      1.89531     10.58139         0.026192     -0.124147      0.254592
Ti       9.61084     13.68601     10.62653         0.911025     -0.002186     -1.159586
Ti       9.51111      5.77412      2.17779         2.387959      0.258409     -0.070308
Ti       9.76095      5.73389     14.81951        -0.882832      0.034678     -1.478192
Ti       9.72440      5.82293      6.38066        -0.420213      0.313312     -0.528337
Ti       9.60740      5.82759     10.56873         0.862388     -0.158362      0.241162
Ti       9.77010      9.68317      2.24971         0.283153      0.272855     -0.606544
Ti       9.71763      9.76348     14.66476         0.110533      0.109877     -0.045994
Ti       9.73994      9.74983      6.46026        -0.184232      0.225389     -0.697358
Ti       9.71075      9.80237     10.60623         0.183967     -0.541763     -0.058119
O       1.91652      2.18248      0.35104        -0.133558     -0.288706      0.972075
O       1.92096      1.78915     12.83012        -0.255338      0.088606      0.424044
O       2.01716     13.65934      0.38657         0.241591     -0.080825     -0.287645
O       1.90477     13.62741     12.91379        -0.067779      0.082006     -0.686035
O      13.66315      1.82828      0.60494         0.109525      0.350080     -0.565766
O      13.54610      1.99199     12.83498         0.368241     -0.370766      0.071897
O      13.76077     13.83877      0.45941        -0.588844     -0.201649     -0.891117
O      13.64782     13.54880     12.79709         0.182912      0.357429     -0.520862
O       2.00685      1.80154      4.48198        -0.128718      0.544171      0.609478
O       1.68788     13.44749      4.70679         0.364595      0.447963      0.390747
O      13.60591      2.20526      4.70945         0.025972     -0.764911     -1.137541
O      13.85921     13.58641      4.69319        -0.197552      0.262029     -0.279355
O       2.05258      1.81260      8.72927        -0.234301      0.132932      0.711534
O       2.08407     13.56927      8.68548        -0.363768     -0.073153     -0.329141
O      13.66421      1.91593      8.65390        -0.261812      0.404075      0.258632
O      13.46855     13.68629      8.76222         0.354061     -0.280186     -0.116868
O       1.78169      5.74149      0.41040         0.205329      0.300139      0.065516
O       2.03731      6.04605     12.71524         0.054874     -0.538960      0.822434
O      13.78116      5.61971      0.56195        -0.137886      0.203065     -0.476199
O      13.44013      5.88660     12.91546         0.189003     -0.086693     -0.172169
O       2.01042      5.89225      4.70229        -0.352769     -0.124383      0.361393
O      13.44528      5.87426      4.66733         0.402206     -0.073031      0.113712
O       1.54102      5.86311      8.81161         0.304176     -0.216696     -0.031259
O      13.57091      5.82030      8.84308        -0.059544      0.364831      0.440601
O       2.03458      9.66814      0.37056        -0.114498     -0.005127      0.628753
O       1.91761      9.89218     12.96700        -0.036127     -0.254467     -0.314421
O      13.66674      9.81824      0.32030         0.076970     -0.310613      0.054445
O      13.82764      9.79426     13.00032        -0.452798     -0.362602      0.822527
O       1.90559      9.57562      4.62462         0.140665      0.048909     -0.232359
O      13.54558      9.66621      4.68275        -0.138570      0.050908     -1.191200
O       1.88756      9.59304      8.65338         0.031938      0.493882     -0.240787
O      13.61266      9.75121      8.65599         0.100445     -0.147725     -0.079198
O       5.84251      1.76532      0.47916        -0.272920      0.309242     -0.011165
O       5.81673      1.82050     13.04400        -0.097395      0.178262      0.179431
O       5.62269     13.42903      0.48069         0.249858      0.175255      0.867232
O       5.84313     13.67302     12.77108        -0.112267     -0.216379     -0.103136
O       5.87538      1.95899      4.51581        -0.065485     -0.067186     -0.106707
O       6.00870     13.56870      4.46316        -0.461868      0.329639      0.165386
O       5.79064      1.88404      8.64827         0.074372      0.140693      0.771755
O       5.96151     13.56244      8.57755        -0.297813      0.092877     -1.309115
O       5.51872      5.84926      0.38965         0.794560      0.154867      0.268040
O       5.60546      5.78976     12.93146         0.304029      0.195377     -0.579315
O       5.77003      5.76822      4.54149        -0.040854     -0.001579      0.274313
O       5.78419      5.57469      8.64241         0.268134      0.682720      0.581138
O       5.88267      9.89713      0.42051         0.006308     -0.384771     -0.336511
O       5.65991      9.74804     12.84791         0.446351     -0.190822     -0.104997
O       5.88975      9.41915      4.53487         0.143037      0.352972     -1.049008
O       5.93613      9.80248      8.66275        -0.451635     -0.506705     -0.105476
O       9.82119      1.61088      0.54510         0.060358      0.498964      0.398663
O       9.75902      1.91517     13.01544        -0.013397      0.231774     -1.023525
O       9.91186     13.61101      0.46812        -0.169594      0.189172     -1.036926
O       9.76941     13.53534     12.95438        -0.249363      0.256593     -0.729880
O       9.68832      2.22387      4.71638        -0.204637     -0.531141     -0.356625
O       9.66492     13.56650      4.58431         0.162422     -0.132425     -1.178369
O       9.57805      1.65255      8.81080         0.375156      0.559432     -0.096948
O       9.57631     13.80293      8.80825         0.262922     -0.231336      0.052461
O       9.71598      5.87039      0.33899        -0.280435     -0.127163      0.699293
O       9.79709      5.80174     12.99836        -0.190087     -0.005494      0.638299
O       9.68459      5.74483      4.56977        -0.161414     -0.139953      0.001330
O       9.61021      6.09313      8.82411         0.138815     -0.913012     -0.066379
O       9.68589      9.74436      0.45815         0.095194     -0.321142      0.000482
O       9.70200      9.71098     12.89623         0.038175      0.060177     -0.396722
O       9.74101      9.79630      4.62001         0.014569     -0.262631     -0.177385
O       9.50651      9.48099      8.87282         0.636782      0.693540     -0.756163
O       3.87212      1.99832      2.52827         0.200478      0.258362     -0.063560
O       3.82713      1.94196     15.08355         0.054313     -0.244634     -0.041207
O       3.79965     13.55628      2.76503         0.640271      0.203187     -0.625713
O       3.88010     13.22339     14.77490         0.029825      1.058825      0.078229
O       0.05510      2.02847      2.58947        -0.625494     -0.698179     -0.136141
O      15.58972      1.86668     14.93613         0.026063      0.239973     -0.070394
O       0.07293     13.75883      2.43602        -0.736818     -0.217420      0.227682
O      15.59715     13.67485     15.04795        -0.058771      0.237605     -0.324864
O       3.89138      1.88481      6.70250         0.338507     -0.234900     -0.630148
O       3.98336     13.51282      6.55779        -0.825652      0.158977      0.176652
O       0.00535      1.86969      6.55928         0.110928      0.137550      0.300288
O      15.53896     13.60309      6.93651         0.471117     -0.080928     -0.464043
O       3.85356      1.88571     10.87860         0.886389      0.222841     -0.193519
O       3.84516     13.57239     10.71437         1.551805      0.302801      0.166642
O      15.60150      2.05494     10.75975        -0.788847     -0.515312      0.476892
O       0.00562     13.68210     10.69961        -0.014261     -0.476507      0.112292
O       3.77710      5.76944      2.53477         0.616545     -0.145474     -0.141044
O       3.84449      6.01517     14.96015        -0.144072     -0.319725      0.301068
O      15.55183      5.94480      2.73053         0.122545     -0.002500     -0.446310
O       0.05672      5.86177     14.84969        -1.106869     -0.236632      0.050973
O       3.78081      5.69593      6.84817         0.294541      0.537944     -0.450728
O      15.51621      5.61256      6.67926        -0.169491      0.555569     -0.145256
O       3.78129      5.93738     10.54798         0.054110     -0.417846      0.624661
O      15.44170      5.85710     11.09702         0.383452      0.018988     -0.532765
O       3.87293      9.68288      2.57573         0.395901      0.283383     -0.078238
O       3.93317      9.83272     14.93013        -0.453559     -0.547913      0.239343
O      15.53850      9.55358      2.45012         0.621055      0.143564      0.227163
O       0.02914      9.68623     15.11942        -0.811930      0.019656     -0.034300
O       3.91337      9.53801      6.58498        -0.227552      0.360293     -0.051881
O      15.57904      9.81665      6.56351         0.092572     -0.330158      0.531140
O       3.83159      9.72400     10.72920         1.115015     -0.100271      0.034037
O      15.59002      9.73807     10.79640        -0.328016      0.061669     -0.274271
O       7.82886      1.80516      2.49540        -0.347242      0.127963      0.370967
O       7.72524      1.80354     15.14872         0.559100      0.278605     -0.276646
O       7.80049     13.70946      2.32827        -0.246233     -0.187795      0.482964
O       7.79430     13.72998     15.02765         0.344578     -0.524786     -0.159078
O       7.75862      2.02658      6.79781        -0.451004     -0.272412     -0.500449
O       7.72818     13.45508      6.51329         1.233253      0.466594      0.557399
O       7.73605      1.92146     10.88657         0.068993      0.022912     -0.033359
O       7.75880     13.70322     10.84834        -1.171259     -0.377714     -0.198841
O       7.72335      5.88325      2.34524        -0.640134      0.067736      0.374234
O       7.72866      5.76842     14.98410         0.530830      0.144296      0.274315
O       7.76500      5.76808      6.65021        -0.243373     -0.318633      0.064522
O       7.70584      5.73572     10.95255         0.632515      0.206379     -0.581177
O       7.83582      9.63072      2.47408        -0.623278     -0.089137      0.412329
O       7.82011      9.69429     15.02078         0.257278      0.201126     -0.035486
O       7.76811      9.63660      6.69561        -0.051422     -0.048693     -0.503945
O       7.71734      9.68243     10.94846         0.066910      0.139930     -0.193162
O      11.68492      1.97139      2.64736         0.039308     -0.112917      0.203588
O      11.76124      2.00336     15.02197        -0.544412     -0.151383      0.213404
O      11.70999     13.69275      2.50410         0.078582     -0.055632      0.269582
O      11.75027     13.64139     14.93424         0.086116     -0.121041      0.226686
O      11.62289      1.85651      6.75149         0.096399      0.798008     -0.020078
O      11.64559     13.65417      6.63575         0.165825     -0.100935      0.022832
O      11.64964      1.71800     10.74857        -0.004565      0.473188     -0.008775
O      11.73393     13.57282     10.88671        -0.733748      0.599261      0.007692
O      11.60545      5.60864      2.55119         0.703795      0.447840     -0.081382
O      11.66745      5.69152     15.12654         0.540233      0.480818     -0.424070
O      11.59335      5.90359      6.70243         0.725215     -0.185801      0.396099
O      11.62104      5.98296     10.92858        -0.533769     -0.505203     -0.138147
O      11.73607      9.93351      2.35592        -0.987760     -0.381902      0.728309
O      11.71354      9.73356     15.05353         0.059981     -0.209227     -0.190117
O      11.61865      9.75063      6.74207         0.296013     -0.372002     -0.098583
O      11.65772      9.80660     10.85278         0.170967     -0.070788     -0.258590
O       1.84955      3.97620      2.60326         0.291727     -0.378835     -0.230075
O       2.01296      3.94121     14.60661        -0.295631     -0.325729      0.438685
O       2.02626      0.02660      2.39428         0.071312     -0.028640      0.074854
O       2.03388     15.59295     15.09385        -0.315757     -0.627024     -0.711285
O      13.75502      3.90491      2.64085        -0.275151     -0.486186      0.035247
O      13.69209      3.86401     14.91883         0.092503      0.371113      0.364800
O      13.62822     15.60630      2.68603        -0.027968      0.134499     -0.022642
O      13.65037     15.59422     14.79271         0.114732      0.085242      0.295192
O       1.92814      3.79816      6.79624        -0.232193     -0.312153     -0.570042
O       2.03536     15.50729      6.72458        -0.369657      0.269095     -0.368013
O      13.52690      3.91966      6.81561        -0.110953     -0.184350     -0.090337
O      13.61028      0.04684      6.74398         0.201988     -0.778882     -0.526442
O       1.86408      3.87409     10.86722         0.255793      0.832002      0.003502
O       1.96204     15.54375     10.75959        -0.154816      0.243910      0.310890
O      13.41635      3.84785     10.83621         0.388680      0.362599     -0.087664
O      13.74361      0.01553     10.75628        -0.365340      0.129147      0.730618
O       2.01286      7.79586      2.47490        -0.441727     -0.559664      0.259179
O       1.87281      7.80470     14.93923         0.378979      0.083997      0.255948
O      13.34239      7.78844      2.33460         0.621802     -0.626523      0.435717
O      13.68466      7.71129     15.16535        -0.314806     -0.056526     -0.580944
O       1.79261      7.69897      6.80006         0.059235      0.224587     -0.414500
O      13.74579      7.75101      6.79854        -0.471036      0.065045     -0.199231
O       1.87016      7.89729     10.94364        -0.261591     -1.127896     -0.386889
O      13.60807      7.88957     10.90696        -0.027218     -0.314311     -0.202176
O       1.92438     11.62037      2.49479        -0.216662      0.264484      0.089212
O       1.79070     11.66592     15.17320         0.457814      0.465567     -0.791777
O      13.71407     11.69592      2.44671         0.183676      0.593461      0.117194
O      13.67753     11.74467     15.05317         0.073065     -0.184374     -0.140108
O       1.93495     11.61458      6.71562         0.176968     -0.403517      0.232122
O      13.58905     11.63722      6.70243         0.175673      0.890962      0.238341
O       1.95721     11.66816     10.73531        -0.252117     -0.325982      0.110960
O      13.67537     11.69638     10.71212        -0.014366     -0.517993     -0.029281
O       5.89567      3.84829      2.41205        -0.340788      0.361498      0.243391
O       5.72410      3.89305     15.11429         0.166411      0.041772     -0.152340
O       5.70455     15.56220      2.57262         0.252750     -0.328433     -0.136779
O       5.73646     15.43312     15.03151        -0.578119      0.328699     -0.015313
O       5.79214      3.82397      6.61827         0.099317     -0.479481     -0.070446
O       5.96081     15.53107      6.54453        -0.292884      1.511032      0.147115
O       5.79832      3.87260     10.83841        -0.189115     -0.279140      0.020629
O       5.83437     15.58989     10.64738        -0.209556     -0.621999      0.134551
O       5.75177      7.74901      2.36369         0.196002      0.016553      0.356924
O       5.94776      7.81699     14.98619        -0.635274     -0.120466      0.230628
O       5.81152      7.58760      6.62936         0.173155      1.352493      0.000261
O       5.89376      7.71221     10.60992        -0.382988      0.441223      0.430011
O       5.84771     11.62028      2.60292         0.002772      0.081613      0.109872
O       6.05289     11.64001     14.83673        -0.209990      0.195485      0.371718
O       5.86440     11.54805      6.47066        -0.188627     -0.225491      0.190983
O       5.83856     11.66390     10.70118         0.123412      0.408210      0.070711
O       9.59735      3.86420      2.28581        -0.234501     -0.458637      0.571647
O       9.62153      3.75963     15.20751         0.694456      0.848781     -0.242836
O       9.75473     15.54416      2.70857         0.137855      0.194819     -0.495097
O       9.87942     15.55456     14.96994        -0.180762      0.111499      0.438050
O       9.74186      3.92443      6.84919         0.016514     -0.014749      0.242009
O       9.67416     15.59704      6.51358        -0.375039     -0.382660      0.369019
O       9.76618      3.86010     10.90584        -0.004564     -0.193137     -0.546999
O       9.63208     15.52981     11.07281         0.439744      0.823611     -0.265242
O       9.87005      7.71834      2.47520        -0.384303      0.441518      0.001993
O       9.84978      7.77276     15.00553        -0.792753     -0.264395     -0.273030
O       9.61900      7.75488      6.65779         0.351106      0.153684     -0.032858
O       9.77371      7.79802     10.96846        -0.516188     -0.441620      0.227971
O       9.68006     11.66149      2.57545         0.101356      0.384794      0.016879
O       9.84788     11.63538     14.92576        -0.403613      0.561875      0.558074
O       9.69948     11.63072      6.67758        -0.141109      0.457816      0.075902
O       9.63120     11.73788     10.95330         0.179274     -0.607207     -0.524743
