  # total energy = -7875.75526759 
CRSYTAL
PRIMVEC
    15.6080000000000005    0.0000000000000000    0.0000000000000000
     0.0000000000000000   15.6080000000000005    0.0000000000000000
     0.0000000000000000    0.0000000000000000   16.6239999999999988
PRESSURE
-0.111302 -0.152729 -0.988709 -0.179783 0.040305 -0.052188
PRIMCOORD
320 1
Pb       4.02948      3.97483      4.12704        -0.318828     -1.123487      0.161176
Pb       4.10038      4.07678      0.16845        -0.336313     -0.261057     -0.355939
Pb       3.87421      0.03443      3.98624         0.414012      0.227954      0.015918
Pb       3.75646     15.57237     16.60367         0.518554      0.209059     -0.014157
Pb       0.10160      3.82810      4.20144        -0.249007     -0.138131     -0.545411
Pb      15.50088      3.79870     16.59477         0.057344      0.066490      0.517382
Pb      15.56639     15.52955      4.01212        -0.498066      0.119038     -0.017670
Pb      15.50337     15.56577     16.55447         0.044236      0.081342      0.246908
Pb       3.62328      3.73685      8.35162         0.722980      0.455706     -0.359487
Pb       3.88753      0.07988      8.25852        -0.333603     -0.223260     -0.108135
Pb      15.52192      3.77862      8.29908        -0.327211      0.533737     -0.193065
Pb       0.12757     15.58318      8.21665        -0.622753     -0.263594     -0.137926
Pb       3.88228      3.93070     12.42089        -0.340478     -0.316288      0.308329
Pb       3.83440     15.40675     12.32994         0.205576      0.590684      0.597178
Pb      15.60310      3.82289     12.45727         0.627159      0.463836      0.203075
Pb      15.59193      0.31440     12.66105        -0.003256     -0.656674     -0.189276
Pb       3.78916      7.88214      4.29097         0.422786      0.025968     -0.399220
Pb       3.81512      7.74423     16.59734         0.413326     -0.168965     -0.111764
Pb       0.22879      7.90986      4.27306        -0.864882     -0.048607     -0.541326
Pb       0.04383      7.73509     16.61463        -0.437068      0.099605      0.318122
Pb       4.01672      7.65113      8.17722        -0.143040      0.701111     -0.318093
Pb      15.33936      7.73519      8.63484         0.359787     -0.269352     -0.512063
Pb       3.92490      7.88734     12.41468         0.230481     -0.424300      0.422789
Pb      15.56733      7.99668     12.62147        -0.045707     -0.831131     -0.520898
Pb       3.81596     11.67464      4.06545         0.066203      0.260633     -0.233781
Pb       3.90569     11.64196     16.46106        -0.265365      0.336365      0.494846
Pb      15.57204     11.67732      4.04215         0.124851     -0.399464      0.159045
Pb      15.53616     11.85646     16.56470         0.301601     -0.599199      0.093633
Pb       3.84425     11.64864      8.04239        -0.755292      0.456656      0.737702
Pb      15.58493     11.60104      8.31174         0.248386      0.401151     -0.039691
Pb       4.04286     11.66324     12.27036        -0.164552     -0.249240      0.747632
Pb       0.24382     11.54559     12.31679        -1.149619      0.425262      0.219153
Pb       7.84350      3.68694      4.20234        -0.308850      0.027487     -0.044728
Pb       7.83052      4.00262      0.10312        -0.052113      0.138725     -0.323051
Pb       7.74495     15.41214      3.99210         0.009057      0.869804      0.831975
Pb       7.89790      0.18968      0.12704        -0.451766      0.100166     -0.326074
Pb       7.55232      3.96456      8.36998         0.580153     -0.398553      0.066689
Pb       7.90217     15.51751      8.31884        -0.351952      0.800252     -0.173056
Pb       7.65165      3.73364     12.42608         0.554980      0.235684     -0.420907
Pb       7.63399     15.55683     12.56812         0.216215      0.170061     -0.357034
Pb       7.69731      7.85802      4.15929         0.445776     -0.033193      0.128998
Pb       7.77356      8.01546     16.57249        -0.235838     -0.922336      0.707265
Pb       7.83344      7.74314      8.24367        -0.230699      0.033819     -0.020304
Pb       7.81052      7.55139     12.37897        -0.217713      0.960400      0.133122
Pb       8.00790     11.70710      4.32567        -0.554455      0.239174     -0.081265
Pb       7.60636     11.70958     16.61221         0.505669     -0.253783      0.356493
Pb       7.61405     11.74954      8.09634         1.001241      0.046204      0.509741
Pb       7.67356     11.45955     12.39070         0.583998      0.338824      0.272352
Pb      11.84319      3.88587      4.41711        -0.325926     -0.208490     -0.534295
Pb      11.82731      4.09277      0.17268        -0.118989      0.182059      0.111582
Pb      11.53150     15.45041      4.19166        -0.229322      0.008338     -0.378583
Pb      11.55968     15.49197      0.07956         0.489584      0.394792     -0.025110
Pb      11.75612      4.15437      8.44744         0.013126     -0.502444      0.256572
Pb      11.62171      0.15692      8.26602         0.007122     -0.118284      0.633527
Pb      11.84228      3.81252     12.66880        -0.026601      0.326497     -1.245186
Pb      11.82768     15.54275     12.43437        -0.626899      0.638507     -0.293394
Pb      11.74948      7.49312      4.06379         0.094667      0.867633      0.385775
Pb      11.41001      7.78520      0.03194         0.140447     -0.008975     -0.139531
Pb      11.53487      7.94978      8.27370         0.345713     -0.762945      0.027938
Pb      11.45227      7.94264     12.70796         0.622337     -0.062205     -0.354396
Pb      11.67861     11.25032      4.28890        -0.135897      0.791250     -0.539550
Pb      11.80754     11.79846     16.50412        -1.123259     -0.622118      0.269163
Pb      12.04345     11.99506      8.49292        -0.710234     -0.485599     -0.410090
Pb      11.58817     11.92027     12.39813        -0.232748     -0.544829     -0.246780
Ti       1.74618      1.81306      2.10476         1.596089      0.885061      0.353507
Ti       1.97878      1.87981     14.79743         0.389323      0.847235      0.699608
Ti       1.88489     13.55994      2.12965         0.523699     -0.122336      0.118788
Ti       1.90824     13.60770     14.60848         0.392241      0.214311      0.857252
Ti      13.47315      1.90621      2.15358         0.625837      0.000684      0.210976
Ti      13.44057      1.93744     14.88403         1.500740     -0.327647     -0.548365
Ti      13.51224     13.53382      2.18328        -0.020637      0.693569      0.357103
Ti      13.59510     13.61015     14.65476         0.617419      1.328163     -0.422116
Ti       1.86177      1.98654      6.26158         0.425645      0.210530     -0.909101
Ti       1.90577     13.82553      6.10980         0.504511     -1.453340      1.805779
Ti      13.62977      1.84585      6.24574         0.515271      0.306498     -0.604336
Ti      13.67868     13.64332      6.19663         0.183700      0.583297     -0.310299
Ti       1.93537      1.91254     10.51156         0.084736      0.092222      0.260872
Ti       1.98680     13.48241     10.46017        -1.193138      1.627318     -1.027747
Ti      13.59436      1.89363     10.44092         0.001680      0.777834      0.958633
Ti      13.73651     13.65250     10.59626         1.160957      0.046683     -0.284104
Ti       2.05444      5.71956      2.18759        -0.450438     -0.386185      0.099345
Ti       1.81187      5.71537     14.83673         1.256977     -0.311822     -0.979667
Ti      13.81441      5.85506      2.20954        -0.034620     -0.245990     -0.880260
Ti      13.55677      5.97911     14.62524         0.367296     -1.128913     -0.104458
Ti       1.90596      5.94133      6.27011        -0.125614     -0.657104      0.565245
Ti      13.69238      5.81662      6.32426         0.093015      0.101699     -0.126877
Ti       2.19839      5.88736     10.35542        -2.072272     -0.414074      0.528291
Ti      13.83298      5.74796     10.65225        -0.436166      0.118036     -1.121431
Ti       1.89728      9.65097      2.11061         0.242030      0.818550     -0.262504
Ti       1.91296      9.64929     14.59102         0.250973      0.273824      0.504123
Ti      13.61987      9.67452      2.11923         0.705339     -0.282151      0.142931
Ti      13.61092      9.78778     14.58161        -0.144555     -0.721367     -0.809539
Ti       1.82679      9.82625      6.40456         0.476090     -0.347807      0.184535
Ti      13.63306      9.66157      6.32437         0.211477     -0.456157      0.233207
Ti       2.02990      9.64336     10.45813        -0.524629     -0.047583     -0.914282
Ti      13.49055      9.62759     10.61015         0.126746      0.401762      0.639157
Ti       5.79718      1.96800      2.10451         0.413123     -0.396690      1.081389
Ti       5.91187      2.05440     14.62402        -1.477543     -0.615049      0.226308
Ti       5.82392     13.62626      2.14348        -0.484953     -0.040595     -0.615701
Ti       5.93222     13.78979     14.80237        -0.807011      0.055143      0.112364
Ti       5.81449      1.92775      6.42815         0.884152      0.276078     -0.256736
Ti       5.76868     13.82182      6.40534         0.263080     -0.994409     -1.701462
Ti       5.83613      1.84184     10.50372        -0.081236      0.361242     -0.539519
Ti       5.90632     13.58268     10.41738        -0.047617      0.521263      2.765266
Ti       5.98211      5.87280      2.42890        -0.089955     -0.468915     -1.305388
Ti       5.88030      5.88433     14.59641        -0.739885     -0.076092      0.303325
Ti       5.80535      5.81041      6.29948         0.433606     -0.381741     -0.476486
Ti       5.93592      5.87723     10.53849        -0.137441     -0.766170     -1.109399
Ti       5.72750      9.78994      2.20923         0.642084     -0.168479      0.354884
Ti       5.75605      9.72915     14.68096         0.845603     -0.451981     -0.803714
Ti       5.80167      9.84310      6.27538        -0.401010     -1.156947     -0.338260
Ti       5.87781      9.68280     10.42844         0.507469     -0.424954      0.015328
Ti       9.75793      1.99043      2.21646        -0.701818     -0.456864      0.419527
Ti       9.72316      2.03715     14.62273        -1.344902      0.016140     -0.963420
Ti       9.68430     13.53831      2.16880         0.564914      0.273071      0.851429
Ti       9.67245     13.72210     14.61962         0.119507     -1.348761     -0.433167
Ti       9.80522      1.81298      6.32229        -1.363473      1.326983     -0.579254
Ti       9.84569     13.61294      6.47985        -0.785397     -0.175346     -0.665630
Ti       9.64175      1.91648     10.54221         1.174369      0.536793     -0.770725
Ti       9.66262     13.63640     10.40517         1.043163      0.723535     -0.524843
Ti       9.77792      5.79402      2.31075        -0.678490      0.023757     -1.029610
Ti       9.67559      5.90041     14.45983         0.323295     -0.661405      0.560676
Ti       9.72445      5.70960      6.33284        -0.122675     -0.373123      1.023983
Ti       9.88923      5.84864     10.43403         0.160973     -1.516831     -0.350044
Ti       9.62395      9.66934      2.31655        -0.363066      0.062686     -0.118566
Ti       9.67651      9.84398     14.61910        -0.058409      0.599489      0.734506
Ti       9.68746      9.68185      6.41510         0.047549      0.760323     -0.894502
Ti       9.74618      9.74694     10.34147        -0.529588      0.233605     -0.608253
O       1.96392      1.55953      0.34467        -0.320530      0.437174     -0.043463
O       1.77449      2.06001     13.03677         0.104872     -0.039882     -0.992093
O       1.66238     13.61458      0.33504         0.610149      0.018598      0.546185
O       2.03693     13.73248     12.87572        -0.043460     -0.716669     -0.933297
O      13.30433      1.84607      0.34523         0.631155      0.568885     -0.957591
O      13.66408      1.79429     13.01342        -0.344620      0.303518      0.694967
O      13.63712     13.36186      0.31082        -0.221731      0.243153      0.980835
O      13.68096     13.87844     12.86040        -0.617492     -0.901521     -0.327234
O       1.85982      1.89253      4.46751        -0.075839      0.404342      0.067337
O       2.00576     13.60023      4.38737         0.074594      0.009208     -0.914018
O      13.71435      2.11819      4.38781        -0.378375     -0.841102      0.748167
O      13.47220     13.73259      4.43047         0.443614     -0.514309     -0.026657
O       1.85249      2.07469      8.69721         0.152797     -0.515479      0.374024
O       1.80137     13.60765      8.66009         0.151039     -0.012697      1.019482
O      13.69663      1.96068      8.68229        -0.100943     -0.277564     -0.466026
O      13.83690     13.50943      8.77465        -0.202323      0.625782      0.577518
O       2.14313      5.84900      0.39428        -0.220865      0.530416      0.863181
O       1.83573      5.60755     13.06023         0.105513      0.184964      0.294571
O      13.46961      6.11282      0.39548         0.213003     -0.657405      0.174672
O      13.71230      5.71914     12.81015        -0.117487      0.083371      0.421955
O       1.82694      5.72659      4.45988         0.131945      0.258024      0.152176
O      13.67650      5.66108      4.46099         0.174291      0.056223      0.480841
O       2.26683      5.93341      8.55322        -0.380514     -0.460031      0.485529
O      13.71112      5.61021      8.74525         0.064814      0.772520      0.016220
O       1.92982      9.65216      0.31168        -0.113241     -0.107616     -0.068533
O       2.12586      9.53488     12.78536        -0.492148      0.574377      0.415025
O      13.88653      9.75946      0.34163        -0.899989     -0.396689     -0.026271
O      13.62418      9.77695     12.74105        -0.148245     -0.292335      0.979591
O       1.81067      9.82893      4.59187         0.171084     -0.443378      0.066625
O      13.86411      9.71216      4.58146        -0.705684      0.312061      0.312155
O       1.81247      9.83237      8.67647         0.580574     -0.526481      0.352457
O      13.51820      9.60202      8.80999         0.195353     -0.035446     -0.942953
O       5.89679      2.11229      0.35594         0.207799     -0.452160     -1.090022
O       5.84963      1.99941     12.77753         0.744356     -0.084774      0.335700
O       5.93830     13.67234      0.32676         0.140765     -0.013731      0.110655
O       5.90881     13.68363     13.02903        -0.094154     -0.329273     -0.703828
O       5.78230      1.79885      4.67469        -0.099465      0.342241     -0.286649
O       5.77723     13.68711      4.59988        -0.239991      0.082405      0.074168
O       5.85249      1.72630      8.68966        -0.655733      0.543017      0.736445
O       5.84158     13.73593      8.76482        -0.391024     -0.055814     -2.747450
O       5.93396      5.75920      0.58786         0.121798     -0.080836     -0.240726
O       5.92330      5.74312     12.79728         0.046428      0.277130      0.121591
O       5.87622      5.58445      4.50235         0.171704      0.739298      0.816402
O       5.78999      5.78246      8.70443         0.048680      0.653494     -0.051293
O       5.74247      9.65455      0.44451         0.119697     -0.257348     -1.188859
O       5.89255      9.71958     12.83268         0.017000      0.245763      0.605878
O       5.74681      9.82853      4.48083         0.143493      0.276417      0.476679
O       5.80932      9.66019      8.69318        -0.042715      0.047297     -0.950213
O       9.61518      2.02226      0.41127         0.033568     -0.091218     -0.756761
O       9.66766      1.75191     12.79075        -0.043604      0.618720      0.963027
O       9.71647     13.53298      0.41862        -0.046970      0.115212     -0.496136
O       9.75742     13.60627     12.79486         0.035515      0.369289      0.119617
O       9.91054      1.78393      4.51360        -0.727104     -0.029746      0.391788
O       9.60149     13.89805      4.67621         0.712609     -0.738617     -0.461042
O      10.04250      2.00895      8.76129        -0.456643     -0.462261     -0.488430
O       9.78331     13.61831      8.54961         0.028652     -0.239053      1.025389
O       9.64586      5.83852      0.40802         0.534890      0.016670      1.182923
O       9.90261      6.05262     12.63237        -0.615963     -0.406814      0.492043
O       9.86315      5.96528      4.59735         0.166698     -0.189768     -0.662519
O       9.91062      5.71232      8.53158        -0.443234      0.055489      0.564806
O       9.69328      9.60555      0.54069         0.197154      0.260592     -0.756310
O       9.47098      9.68340     12.86495         0.835206     -0.152773     -0.848077
O       9.51715      9.82000      4.50213         0.636092     -0.508828      1.090981
O       9.83824      9.72992      8.50907        -0.099845      0.099866      0.629130
O       3.97927      1.81856      2.37408        -0.948690     -0.262273      0.295792
O       3.86709      1.88826     14.82882         0.042474     -0.314404      0.540276
O       3.84576     13.55424      2.27385        -0.246699      0.558781      0.219839
O       3.90564     13.71630     15.09175        -0.045642     -0.207218     -0.359497
O      15.53798      1.88590      2.34029        -0.128435     -0.020260     -0.053041
O      15.52776      1.90390     15.13235        -0.719933     -0.125115     -0.207082
O      15.47548     13.52351      2.57360         0.415146      0.116596     -0.640212
O      15.50773     13.58206     14.89060         0.600321     -0.385111     -0.017714
O       3.80457      2.05923      6.76472         0.094439     -0.299757     -0.231994
O       3.78468     13.68712      6.68823         0.419388     -0.341313      0.058029
O      15.59832      1.80386      6.57367        -0.156288      0.123652      0.235343
O       0.05445     13.72995      6.27382        -0.647657      0.069476      0.631489
O       3.92445      1.92879     10.86466        -0.644531      0.112186     -0.388672
O       3.91279     13.51091     10.81080         0.467421      0.390160     -0.167650
O       0.05020      1.99585     10.89320        -0.159515     -0.014184     -0.295089
O       0.10436     13.49647     10.87481        -0.632929      0.088950     -0.048279
O       3.99775      5.68452      2.62933        -0.900988      0.908424     -0.516218
O       3.88419      5.95571     14.96859         0.985786     -0.396932      0.014184
O       0.11785      5.71962      2.26217        -0.247320     -0.002368      0.209833
O      15.51994      5.73188     15.18124        -0.270499      0.552845     -0.348071
O       3.91944      5.84461      6.37896        -0.460895     -0.326109      0.469834
O      15.59301      6.04327      6.72448        -0.014132     -0.610501     -0.251336
O       4.01677      5.90900     10.92683        -0.556006     -0.348737     -0.285871
O       0.14408      5.85334     10.56190        -0.391958     -0.154831      0.343162
O       3.82869      9.71992      2.56916         0.009048     -0.313194      0.069269
O       3.90983      9.52581     14.94015        -0.590346      0.483159     -0.225586
O       0.06276      9.72944      2.49998        -0.895180      0.271027     -0.070424
O      15.56216      9.69817     14.61104         0.569609      0.058948      0.466974
O       3.80584      9.71830      6.64236         0.349990      0.716509     -0.133612
O      15.52835      9.53720      6.79220        -0.503620      0.470561     -0.285612
O       3.99783      9.66672     10.76428        -0.807357      0.245818      0.134435
O       0.13103      9.59936     10.87238        -0.569087      0.281021     -0.016721
O       7.76061      1.99178      2.52750         0.880924     -0.645453     -0.183388
O       7.75120      2.09150     14.91815         1.177889     -0.262325      0.137368
O       7.73878     13.52975      2.56197         0.557696      0.207551     -0.468164
O       7.82221     13.36572     14.97991        -0.399185      1.203618     -0.242346
O       7.76613      1.76084      6.74748         0.504137      0.532074     -0.311877
O       7.70011     13.79468      6.64538        -0.422238     -0.517758      0.436632
O       7.75452      1.68199     10.62616         0.201049      0.313756      0.717496
O       7.86859     13.48451     10.61889        -1.231573      0.341783      0.538789
O       7.90525      5.72579      2.78694        -0.521065      0.072949     -0.580399
O       7.80803      5.90094     14.77308        -0.270693     -0.192877      0.077642
O       7.76426      5.90863      6.67862         0.364942     -0.198296     -0.130812
O       7.82202      5.93054     10.68999         0.177213     -0.248665      0.054115
O       7.66915      9.67597      2.48648         0.873338      0.316087      0.134133
O       7.80259      9.75282     15.08122        -0.263983      0.436921     -0.280303
O       7.70191      9.76383      6.70377        -0.145207     -0.073894     -0.362353
O       7.85811      9.63332     10.60500         0.167559      0.257107      0.412817
O      11.65117      1.98368      2.31013        -0.037432     -0.114285      0.828618
O      11.52517      1.81091     14.91764         0.843608      0.283589      0.005177
O      11.63417     13.65080      2.47056        -0.195882     -0.307867     -0.420365
O      11.68238     13.70547     14.94990        -0.624586     -0.585120     -0.001986
O      11.70707      1.65878      6.39899         0.945030      0.557634      0.570249
O      11.72773     13.60109      6.59380         0.077715      0.170860      0.272526
O      11.76476      1.91968     10.89346         0.046720     -0.040952      0.078026
O      11.71667     13.65231     10.70467         1.172216     -0.572504      0.373470
O      11.69585      5.82721      2.43904         0.164649      0.226019      0.282642
O      11.68237      5.86467     14.75939        -0.312973      0.031524      0.432011
O      11.80711      5.67830      6.58216        -0.741603      0.069703     -0.219630
O      11.72539      5.45692     10.61868        -0.737262      0.719957      0.410195
O      11.72945      9.58593      2.50287        -0.217139     -0.158417      0.140709
O      11.59127      9.69006     14.89865         1.037806     -0.048725     -0.029698
O      11.59217      9.80182      6.42836         0.966826     -0.051890      0.125507
O      11.61496      9.62327     10.84060         0.476889      0.109601      0.080756
O       2.14129      3.69902      2.32608        -0.787728      1.248953      0.119688
O       1.90371      3.83949     15.41198         0.291955     -0.218864     -1.195146
O       1.85757     15.53920      2.55968         0.131698     -0.765853     -0.441867
O       1.81495     15.50662     14.89632         0.200520      0.460214      0.199295
O      13.70351      3.89057      2.20784        -0.530968      0.107575      0.187867
O      13.51300      3.90523     15.04831        -0.227266     -0.936037     -0.095031
O      13.56959     15.53923      2.19442         0.190009     -0.335159      0.657747
O      13.56415     15.49665     15.16321        -0.108370      0.502890     -0.419262
O       1.71169      3.89632      6.58960         0.526686      0.391444      0.085263
O       2.03075      0.06192      6.44383        -0.242410     -0.273653      0.715624
O      13.71722      3.71391      6.57406         0.137142      0.952796     -0.026258
O      13.76990     15.51883      6.55561        -0.384507      0.521944      0.425265
O       2.05042      3.99722     10.85622         0.237123     -0.665953     -0.599533
O       2.00876      0.04290     10.73395        -0.080480     -0.337075      0.006564
O      13.66113      3.87552     10.87603         0.689769     -1.309122      0.297968
O      13.81113      0.01880     10.73179        -0.307944     -1.009180      0.138271
O       1.93270      7.78497      2.56469         0.375759     -0.808828     -0.212413
O       1.85400      7.74248     14.99946        -0.222353      0.369319     -0.107749
O      13.87481      7.74098      2.59877        -0.548879      0.345317     -0.178866
O      13.58761      7.80306     14.67421         0.379909      0.490159      0.460115
O       2.05224      7.78230      6.47715        -0.105732      0.035063     -0.162407
O      13.45992      7.69949      6.48060         0.296321      1.107123      0.390945
O       2.06267      7.76457     10.71451         0.326624     -0.261431      0.058863
O      13.68638      7.65517     10.88021        -0.128650      0.845454     -0.176097
O       1.99100     11.62845      2.44914        -0.552267      0.672515     -0.113737
O       2.05846     11.64564     14.88277        -0.471033     -0.507452     -0.287501
O      13.46982     11.56556      2.53775         0.655727      0.376621     -0.195327
O      13.57323     11.62575     14.92768        -0.113758      0.625687     -0.379723
O       1.79880     11.69544      6.57452         0.241434      0.101955      0.207902
O      13.69599     11.81191      6.68797         0.180194     -1.924705     -0.166836
O       2.03948     11.61780     10.77097         0.112891     -0.280180      0.327465
O      13.73139     11.54336     10.75128        -0.419179      1.108323      0.211952
O       5.92122      3.79099      2.58653        -0.421635      0.542269      0.031477
O       5.78781      3.89505     14.97490         0.152958      1.468766     -0.227234
O       5.83811     15.53146      2.43390         0.202837     -0.166218     -0.190260
O       6.05315      0.12908     14.92542        -0.080238     -1.625935      0.169349
O       5.95109      3.89838      6.66891        -0.537583     -0.170856      0.040147
O       5.67201      0.02137      6.72216        -0.274185     -0.109765      0.088751
O       5.96504      3.82440     10.64165         0.007129      0.180231      0.355796
O       5.87159     15.48988     10.92678        -0.360555     -0.479348     -0.227272
O       5.91482      7.72919      2.58073        -0.492874      0.030686      0.290085
O       5.97143      7.80592     14.97635        -0.382739     -0.620048     -0.249349
O       5.70869      7.87812      6.40091         0.430157     -0.921816      0.493999
O       5.94029      7.76785     10.84753        -0.459018      0.087748     -0.175192
O       5.75482     11.66256      2.20880        -0.086528      0.408000      0.821100
O       5.80388     11.60438     15.00541        -0.248478      0.281409      0.008291
O       5.72208     11.76621      6.69557         0.389612     -0.468990     -0.297577
O       5.94036     11.61634     10.74333        -0.397544      0.525826      0.175324
O       9.81090      3.85542      2.61262        -0.238800      0.644641     -0.070655
O       9.63194      4.00368     14.73098         0.715685     -1.190121      0.012511
O       9.75694      0.01089      2.46938        -0.383009     -0.800781     -0.535861
O       9.57096     15.55065     14.99522        -0.103690      0.667906      0.157567
O       9.74478      3.81655      6.28791        -0.021019      0.273946      0.714669
O       9.73283     15.57327      6.75596         0.447623      0.094718      0.325925
O       9.43462      3.80680     10.74026         0.580728      0.168805      0.391132
O       9.82921     15.53825     10.55929        -0.212317     -0.691609      0.476868
O       9.61939      7.77382      2.59666         0.544825     -0.294353     -0.074880
O       9.76310      7.76832     14.85617        -0.050418      0.377977      0.293358
O       9.68135      7.80300      6.68718         0.314066      0.010267     -0.200414
O       9.88082      7.69006     10.40112        -0.092344      0.853922      0.648735
O       9.71619     11.66732      2.68109         0.231271      0.096792     -0.431988
O       9.77336     11.73829     14.80865         0.408830     -0.942214      0.333931
O       9.52302     11.74577      6.53679         0.146873     -0.461338     -0.208906
O       9.84613     11.60435     10.64226         0.083854      0.432118      0.533843
