  # total energy = -7883.42264213 
CRSYTAL
PRIMVEC
    15.6080000000000005    0.0000000000000000    0.0000000000000000
     0.0000000000000000   15.6080000000000005    0.0000000000000000
     0.0000000000000000    0.0000000000000000   16.6239999999999988
PRESSURE
0.065009 -0.178232 0.946106 0.156928 -0.012928 -0.066275
PRIMCOORD
320 1
Pb       3.83337      3.80950      4.10568        -0.200614      0.101979      0.503454
Pb       3.86382      3.85287     16.53292         0.392543     -0.229474      0.519812
Pb       3.91252     15.50865      4.09079        -0.316297     -0.134924      0.778572
Pb       3.97120     15.58203     16.53299        -0.208897      0.278518      0.635726
Pb       0.02469      3.93491      4.10247         0.274380     -0.057373      0.306194
Pb       0.03529      3.86315     16.61035        -0.632714      0.037054      0.207460
Pb       0.01548     15.51389      4.15657         0.194644      0.018376      0.126826
Pb      15.60443      0.00245     16.54558        -0.302502     -0.285702      0.704988
Pb       3.98873      3.88004      8.18650        -0.787180     -0.072893      0.733616
Pb       3.87153     15.42329      8.17077         0.029018      0.877396      0.697266
Pb      15.57297      3.91030      8.27360        -0.176823     -0.250898      0.184136
Pb      15.50312     15.51465      8.31024         0.304715      0.776196     -0.246544
Pb       3.85351      3.79673     12.44274        -0.150710      0.123891     -0.602568
Pb       3.94593      0.07383     12.53418        -0.077971     -0.028270     -0.561421
Pb       0.01105      4.04371     12.55172         0.036758     -0.431522     -0.812988
Pb       0.06251     15.54022     12.46093        -0.133956      0.446989     -0.364437
Pb       3.94655      7.77800      3.97366        -0.472873     -0.257408      0.972022
Pb       3.91160      7.81593     16.57542        -0.249473      0.054289     -0.040633
Pb      15.44209      7.76635      4.09842         0.302332     -0.075452     -0.067210
Pb      15.59506      7.71661     16.56081        -0.142899      0.967128      0.630082
Pb       3.75252      7.77377      8.30138         0.683551      0.147384      0.185313
Pb      15.52127      7.70870      8.33991        -0.210597      0.020527      0.117841
Pb       3.89387      7.73734     12.35326        -0.193490      0.051386      0.233527
Pb      15.55467      7.76352     12.39040         0.261984     -0.351027      0.311482
Pb       3.88507     11.67473      4.10115         0.247669      0.073707      0.909824
Pb       3.83437     11.74427      0.05202         0.182762     -0.398698     -0.747823
Pb      15.57485     11.61896      4.08861         0.122311     -0.055268      0.028355
Pb      15.58279     11.60556     16.53884         0.066792     -0.058719     -0.244246
Pb       3.89909     11.74291      8.40953         0.247106     -0.442605     -0.508235
Pb       0.07423     11.73445      8.26519        -0.211163      0.011778      0.328161
Pb       3.80321     11.64548     12.43210         0.140688     -0.015075      0.284985
Pb      15.53079     11.80894     12.51487         0.423185      0.129601     -0.163954
Pb       7.81255      3.89500      4.08284         0.479076     -0.265572      0.760308
Pb       7.82622      3.86382     16.58429         0.061187      0.061258      0.580860
Pb       7.83718      0.01277      4.19286        -0.015357     -0.083292     -0.215863
Pb       7.77191     15.59512     16.52478         0.739936      0.373661      0.509268
Pb       7.87838      3.79232      8.24909        -0.199184      0.469351      0.349773
Pb       7.73683      0.02451      8.13654         0.163119      0.069196      0.910738
Pb       7.86735      3.84422     12.50044        -0.496814     -0.110063     -0.446017
Pb       7.75944     15.57742     12.32326        -0.562912     -0.039310      0.466096
Pb       7.92878      7.77863      4.14940        -0.683940      0.171363      0.780584
Pb       7.64281      7.61126      0.02688         0.305111      0.340851     -0.197525
Pb       7.75772      7.72707      8.21694         0.031849      0.061638      0.197278
Pb       7.64469      7.90143     12.44491         0.169240     -0.201108      0.613006
Pb       7.81006     11.65652      4.10082        -0.330892      0.371739      0.920725
Pb       7.78479     11.77054     16.57884        -0.124000     -0.205159      0.143260
Pb       7.95055     11.67633      8.37694        -1.057410      0.050319     -0.207073
Pb       7.78749     11.81146     12.43027        -0.184742     -0.447164      0.136341
Pb      11.69085      3.80051      4.06498         0.116368      0.404503      0.187411
Pb      11.64885      3.84898      0.08665        -0.036101     -0.187971     -0.310115
Pb      11.73036     15.52568      4.10713        -0.094874      0.152825     -0.142423
Pb      11.72933     15.59484     16.51193        -0.645295      0.284572      0.483967
Pb      11.68542      3.89651      8.30931         0.136970     -0.098830     -0.172731
Pb      11.81045      0.01985      8.36632        -0.192546      0.221792     -0.053906
Pb      11.64878      3.91296     12.32976         0.014277      0.006384      0.832484
Pb      11.48622      0.09369     12.43428         1.027639     -0.400123      0.983809
Pb      11.69457      8.01692      4.25392         0.368323     -0.036963     -0.467502
Pb      11.78189      7.76699     16.58821        -0.660170      0.227677      0.140709
Pb      11.71020      7.66505      8.38503         0.003021      0.410988     -0.061309
Pb      11.71350      7.88126     12.44003        -0.468200     -0.204212      0.820741
Pb      11.82934     11.75339      4.09121        -0.342560     -0.451063      0.182723
Pb      11.52025     11.61544     16.59820         0.123235      0.267041      0.337754
Pb      11.61699     11.73883      8.40188         0.213225     -0.123756     -0.160163
Pb      11.67331     11.61458     12.49761        -0.705308      0.296314     -0.116640
Ti       1.92718      1.76912      2.20525        -0.081146      1.051731      0.446105
Ti       1.85837      1.92081     14.70844         1.298394     -0.836697     -0.055281
Ti       1.95762     13.53430      2.16168        -0.305298      0.919095      1.790494
Ti       1.92357     13.66809     14.79411         0.357171     -0.501812     -1.501334
Ti      13.71828      1.93717      2.18600        -0.396240     -0.306184     -0.900964
Ti      13.66477      1.95516     14.72565        -0.956692      0.458689      0.341228
Ti      13.65624     13.67970      2.13674         0.128963     -0.421686     -0.152243
Ti      13.62471     13.67816     14.64942        -0.200783      0.217297      0.248255
Ti       1.91838      2.02746      6.35365         0.107468     -0.697437      0.397556
Ti       1.94912     13.63413      6.41758         0.290879      0.604236     -0.906371
Ti      13.63001      1.96752      6.34339         0.667237      0.048594      0.552938
Ti      13.57734     13.63552      6.40936         0.407328      0.102408      0.470252
Ti       1.82898      1.98395     10.36964         0.305683     -0.120103      2.670260
Ti       1.94975     13.68918     10.55381        -0.113369      0.208129     -0.042096
Ti      13.64228      1.92636     10.62619         1.310006      0.050030     -1.147318
Ti      13.57724     13.68276     10.57003        -0.069760      0.666559      0.612852
Ti       1.97270      5.78220      2.16787        -0.763762      0.164416      1.479887
Ti       1.82098      5.82460     14.85072         1.256308      0.820808     -1.380484
Ti      13.64710      5.77253      2.17174         0.328473      1.260859      0.754879
Ti      13.54265      5.88388     14.76442         0.314751     -0.517918     -1.003352
Ti       1.85706      5.90974      6.41036         0.366732     -0.888409     -0.432933
Ti      13.55380      5.86878      6.40790         0.379323     -0.411424     -0.831375
Ti       1.97928      5.87334     10.44785        -0.960174     -0.973558      1.115400
Ti      13.56805      5.81389     10.64707         1.028945      0.119336     -1.211753
Ti       1.98635      9.70828      2.13852        -1.057287     -0.914903      0.094929
Ti       1.93618      9.72443     14.63183        -0.103630      0.008918      0.795400
Ti      13.69207      9.76763      2.09856        -0.609360     -0.819323      0.507835
Ti      13.56977      9.87205     14.61449         0.631392     -1.045561      0.911913
Ti       1.88548      9.73999      6.44146         0.955231     -0.027664     -1.094153
Ti      13.59105      9.78656      6.45234         0.319140     -0.008028     -0.168521
Ti       1.84253      9.77561     10.58019         0.950901      0.124891      0.433939
Ti      13.60636      9.79897     10.55895        -0.363574     -0.058251     -0.560687
Ti       5.79066      1.87038      2.28723         0.968552      0.464842     -0.940723
Ti       5.83598      1.98570     14.73909         0.213732     -0.065722     -0.628209
Ti       5.86077     13.66536      2.19448         0.629987     -0.313524     -0.030801
Ti       5.84052     13.68964     14.75470         0.158405     -1.302730     -0.924948
Ti       5.86127      2.00007      6.38858        -0.643883     -0.507575      1.177076
Ti       5.86139     13.63804      6.40576        -0.028195     -1.254215      0.112740
Ti       5.78559      1.86053     10.47037         0.133305      0.156598      0.482901
Ti       5.74506     13.56156     10.51499         0.243989      1.104455     -1.396713
Ti       5.87995      5.73209      2.36155         0.032966      0.346737      0.226942
Ti       5.70627      5.81629     14.61113         1.012980      0.529710     -0.763825
Ti       5.77122      5.82651      6.38675         0.413233     -0.275187      0.017241
Ti       5.93094      5.72981     10.53079        -0.991144     -0.132873      1.909825
Ti       5.80592      9.75551      2.23816         0.818968     -0.340207     -1.089682
Ti       5.81453      9.76560     14.77884         0.278603      0.177246     -0.811779
Ti       5.84775      9.71668      6.52747        -0.421663      0.989667     -0.137372
Ti       5.81928      9.71952     10.55086        -0.339333     -0.198703     -0.922970
Ti       9.76885      1.93767      2.23593        -0.719695     -0.236215     -0.894651
Ti       9.75321      2.04630     14.68298         0.336350     -1.218330      1.140673
Ti       9.74775     13.62129      2.26113        -0.106161      0.581275     -1.160035
Ti       9.74371     13.62900     14.66327        -0.678076      0.777824     -0.137183
Ti       9.78734      2.00721      6.32679        -0.434986     -0.500610      0.243349
Ti       9.77982     13.71199      6.44016        -1.028159     -0.207429      0.030385
Ti       9.71011      1.90609     10.52562        -1.119257      0.652565     -0.817726
Ti       9.70931     13.67340     10.57488         0.016834     -0.768377      0.379985
Ti       9.81023      5.88399      2.30061        -0.169029     -0.386751     -0.459442
Ti       9.67723      5.85782     14.63238         0.416941      0.402474      0.167290
Ti       9.72439      5.85196      6.34775        -0.480539     -0.241667     -0.566159
Ti       9.67424      5.88338     10.54889        -0.175405     -0.810662      0.488137
Ti       9.66370      9.78351      2.29494         1.397523     -0.294704     -1.788818
Ti       9.67266      9.70720     14.75399        -0.412075     -0.518979     -1.215854
Ti       9.76162      9.78169      6.46988        -0.711835     -0.396448      0.070827
Ti       9.69528      9.67872     10.54626        -0.051898      0.731097      0.790840
O       1.99567      1.82933      0.44355        -0.420130      0.462216     -0.075973
O       1.92794      1.82303     12.95185         0.061580      0.056766      0.443616
O       2.03361     13.49783      0.43446        -0.133133      0.101801     -0.888990
O       1.88154     13.69863     12.97039         0.157314      0.011113      0.584201
O      13.59956      1.86891      0.36885         0.775676      0.553924      1.169200
O      13.64868      1.86755     13.00361        -0.079627      0.122223     -1.254726
O      13.56344     13.63586      0.38138         0.158012     -0.139544      0.519137
O      13.75723     13.68944     12.88744         0.032772     -0.047188      0.076215
O       1.98321      1.99980      4.57979        -0.240284     -0.575581     -0.050147
O       2.05628     13.74637      4.63233        -0.528445     -0.461318      0.066361
O      13.68572      2.00954      4.58568        -0.561320     -0.297818     -0.723164
O      13.61691     13.65292      4.63941        -0.032530      0.019110     -0.482700
O       1.82757      2.07495      8.67552         0.077438     -0.172048     -1.598418
O       1.94597     13.40543      8.76154        -0.008541      0.676828     -0.169409
O      13.66150      1.98393      8.78208        -0.325448     -0.148351      0.712852
O      13.51928     13.76332      8.75173         0.022310     -0.218722      0.614778
O       1.85129      5.76900      0.43160         0.129215     -0.343500     -1.405438
O       1.79015      5.89684     13.08034         0.297778     -0.357699     -0.374760
O      13.82862      5.96056      0.42185        -0.497619     -0.480337     -0.756846
O      13.55746      5.79229     12.96836         0.238556      0.100253     -0.408667
O       1.81352      5.96941      4.63497         0.237153     -0.026605      0.221779
O      13.57222      5.78309      4.60010        -0.020975      0.354613      0.376885
O       1.91289      5.86871      8.70742        -0.266662     -0.122748     -0.662159
O      13.57185      5.95388      8.79624        -0.072333     -0.273657      0.368349
O       1.94156      9.77465      0.36634         0.096502      0.231185      0.628054
O       2.07840      9.68603     12.87830        -0.386981      0.117482     -0.601943
O      13.77887      9.71628      0.34648        -0.482127      0.337747     -0.721052
O      13.36625      9.84841     12.85522         0.670840     -0.012427     -0.354365
O       1.91335      9.61006      4.63273        -0.019595      0.269651      0.640482
O      13.66628      9.82561      4.63577        -0.028848     -0.152312      0.478962
O       1.92949      9.82757      8.84163        -0.540743     -0.088149     -0.728554
O      13.48385      9.75401      8.75964         0.443521     -0.187468      0.992954
O       5.86660      1.92664      0.47473        -0.087177      0.234728      0.490929
O       5.83140      1.82715     12.97490        -0.118210     -0.044036     -0.113360
O       5.80141     13.69324      0.39395         0.289110     -0.299770      0.737105
O       5.92441     13.66976     12.97161        -0.184589     -0.058505     -0.461369
O       5.85497      1.93889      4.67374        -0.067660     -0.421349     -1.735869
O       6.00394     13.64622      4.61598        -0.553822      0.054066     -0.098083
O       5.83721      1.94160      8.71930        -0.038504      0.053599     -0.026402
O       5.50194     13.52218      8.68303         0.883198      0.482573      1.262167
O       6.02718      5.60569      0.63276        -0.331090      0.437478     -0.943215
O       5.66713      5.87836     12.82900         0.027143     -0.101217      0.565141
O       5.71460      5.70767      4.63562         0.333185      0.469733     -0.738609
O       5.83397      5.74909      8.82006         0.273057      0.145838     -1.119729
O       5.84090      9.66926      0.44014        -0.202438      0.054075      0.674665
O       5.84417      9.82044     13.00098        -0.394354     -0.381657     -0.680010
O       5.90304      9.78646      4.76485        -0.367401     -0.347848     -1.399506
O       5.94155      9.62584      8.75935        -0.302425      0.263034      0.918332
O       9.66865      1.97170      0.44778         0.257432     -0.192676      0.397029
O       9.73622      2.02450     12.91987        -0.013942      0.239054     -0.940597
O       9.77357     13.62565      0.43245        -0.005049     -0.297385      0.858715
O       9.54777     13.71724     12.88510         0.281394     -0.446574     -0.005699
O       9.78739      1.96863      4.55115         0.388214      0.247930     -0.460533
O       9.83933     13.47761      4.71775        -0.281534      0.604518     -1.207266
O       9.50358      1.83695      8.74562         1.059959      0.351871      0.548857
O       9.93768     13.67375      8.85084        -0.299206      0.155568     -1.271635
O       9.71239      6.08268      0.54707        -0.238969     -0.098902     -0.425098
O       9.81239      5.78899     12.85953        -0.036180     -0.245197      0.577328
O       9.79107      5.62231      4.56069         0.600021      0.689052     -0.067073
O       9.51380      5.82057      8.80004         0.705061      0.252667     -0.252392
O       9.76598      9.73034      0.43153        -0.203608      0.122549      0.932382
O       9.83054      9.84790     12.92400        -0.397979     -0.241879      0.691133
O       9.71325      9.77548      4.70201         0.204368      0.151031     -0.679146
O       9.66088      9.64663      8.78025         0.234137      0.309327     -0.094186
O       3.85423      1.89908      2.52197         0.710083      0.029516      0.138340
O       3.93082      1.88848     15.03824        -0.150197     -0.019623     -0.023985
O       3.97428     13.62033      2.60603        -0.309433     -0.222054     -0.459866
O       3.87267     13.66400     14.99539         0.530472     -0.449635      0.211889
O       0.00559      1.83921      2.60273        -0.000037      0.016500     -0.463114
O       0.00648      1.80530     15.03487        -0.063069      0.372973      0.032030
O       0.04430     13.63798      2.58553        -0.352616     -0.253135     -0.434198
O       0.01808     13.65546     15.09365        -0.563969      0.140782     -0.189881
O       3.89253      2.00195      6.64164        -0.714052     -0.221054      0.176753
O       3.91199     13.68622      6.62753        -0.982012     -0.213399     -0.112575
O      15.57743      1.89234      6.64264        -0.580795      0.250469      0.076797
O      15.50225     13.71226      6.73199         0.210502     -0.752176     -0.120021
O       3.85710      1.92444     10.92496         0.159269     -0.160093     -0.358960
O       3.86232     13.65421     10.85760        -0.496737      0.015798      0.541602
O      15.56879      1.94958     10.90057        -0.147089      0.235618     -0.085378
O       0.09682     13.57923     10.93957        -1.767628      0.351604     -0.421737
O       3.82248      5.66860      2.50869         1.455598      0.323545      0.067683
O       3.92415      5.83098     15.13332        -1.270247     -0.022993      0.122919
O       0.04574      5.85352      2.56898        -0.499490      0.462283     -0.054676
O      15.59784      5.94251     15.10569        -0.694891     -1.035868     -0.357438
O       3.84406      5.81703      6.65592        -0.483135      0.102970      0.310432
O      15.49087      5.78910      6.76752         0.041894      0.481048     -0.146592
O       3.77909      5.71185     10.76357         1.407385      0.548883      0.485538
O      15.58192      5.92536     10.77391        -0.461060     -0.306332      0.681650
O       3.88020      9.79677      2.54466         0.875912      0.015742     -0.036439
O       3.86793      9.79571     15.00690         0.275472     -0.404943      0.400193
O       0.00747      9.69956      2.47947         0.631740      0.112054      0.264723
O      15.59122      9.82319     14.82190        -0.587956     -0.164775      0.165343
O       3.86560      9.67045      6.86786        -0.541653     -0.264386     -0.445665
O      15.57792      9.81626      6.81266        -0.364683     -0.093589     -0.214392
O       3.88124      9.71886     10.76515        -0.051559      0.194781      0.440136
O      15.49900      9.71756     10.85307        -0.001694      0.110653      0.102408
O       7.83143      1.82055      2.65565        -0.385480      0.234980     -0.369922
O       7.77680      2.01537     15.08672        -0.107246     -0.004649     -0.525164
O       7.86898     13.70515      2.62296        -0.492843     -0.303986     -0.463320
O       7.83436     13.69018     15.08584        -0.182497     -0.038456      0.032112
O       7.79618      2.03460      6.65921        -0.178042     -0.193881     -0.181184
O       7.71017     13.56306      6.83339         1.005049      0.327679      0.032038
O       7.75207      1.88881     10.87503         0.463476      0.000773      0.073745
O       7.71662     13.73248     10.63532         0.747752     -0.557071      0.505607
O       7.87602      5.91299      2.72986        -0.862034     -0.265050     -0.467947
O       7.78054      5.77534     14.92414         0.138091      0.271387      0.127960
O       7.86518      5.77467      6.61279        -1.403098     -0.020048      0.096464
O       7.77780      5.83499     11.06509        -0.171606     -0.090481     -0.665613
O       7.78706      9.75712      2.51927        -0.159830     -0.560793      0.275742
O       7.72558      9.54340     14.92799         1.226477      0.400768      0.563117
O       7.77213      9.75609      6.81627         0.402563     -0.047656     -0.116292
O       7.72563      9.79405     10.97195         0.858641     -0.058106     -0.302368
O      11.73988      2.01794      2.40666         0.141683     -0.094331      0.641616
O      11.70618      2.06447     15.08770        -0.068456     -0.288035     -0.296035
O      11.71295     13.59180      2.58358         0.611738      0.002101     -0.076959
O      11.61068     13.68339     14.86815         0.842814     -0.412609      0.135310
O      11.63601      1.92473      6.68777         0.360297      0.044643      0.173189
O      11.60716     13.68326      6.70082         1.090362      0.318693      0.334682
O      11.71175      1.92343     10.83277        -0.976162      0.172488     -0.095782
O      11.69497     13.79691     11.03841         0.447966     -0.587311     -0.684292
O      11.74799      5.72563      2.31291         0.047769     -0.053182      0.668994
O      11.70772      5.81838     15.13100        -0.156563     -0.043964     -0.014381
O      11.62000      5.91176      6.79879         0.630355     -0.174110      0.097537
O      11.67145      5.77159     10.74646        -0.706257      0.100255      0.218422
O      11.70774      9.83359      2.48684         0.260239     -0.084824      0.291873
O      11.66987      9.88374     15.03114         0.264786     -0.233900      0.053690
O      11.67391      9.70651      6.75073        -0.190601     -0.040762     -0.160699
O      11.62167      9.78134     10.89669         0.322662     -0.225659     -0.490879
O       1.88570      3.84815      2.63259        -0.014955     -0.043851     -0.809445
O       1.98287      3.79216     15.02858        -0.528808      0.830230      0.122498
O       1.93286     15.49827      2.54832         0.310930      0.228739     -0.151203
O       2.03338     15.56770     15.18414        -0.603417     -0.061635     -0.638938
O      13.84407      3.88755      2.46708        -0.507430     -0.389242     -0.294552
O      13.75023      3.89435     14.95373         0.334892      0.161174      0.632318
O      13.66927     15.59047      2.37529        -0.243481     -0.350817      0.837147
O      13.58060     15.58080     15.10280         0.468873     -0.259134     -0.554739
O       1.81787      3.90843      6.71632         0.269625      0.201896     -0.390964
O       1.86680     15.53431      6.74855         0.144975      0.524086      0.061672
O      13.49675      3.90310      6.70667         0.090532      0.027517      0.182934
O      13.55801      0.03945      6.72137        -0.075808     -0.464430     -0.141835
O       1.89606      3.85464     10.90977        -0.301805      0.648079     -0.016393
O       1.78027      0.04392     10.68237         0.598555     -0.910202      0.174051
O      13.70050      3.89862     11.00075        -0.367908      0.083044     -0.346113
O      13.70741      0.01918     10.87641        -0.085679     -0.496487     -0.148494
O       2.15413      7.79013      2.31228        -0.437365      0.060103      0.377418
O       1.87970      7.76753     15.09700         0.720915      0.343562     -0.042436
O      13.58314      7.80640      2.43312         0.200759     -0.048516      0.696516
O      13.56778      7.84877     14.79048         0.089844      0.100369      0.741789
O       1.82249      7.76903      6.84507        -0.002240      0.585849     -0.149062
O      13.63279      7.80631      6.63880        -0.035501      0.231092      0.283848
O       1.90413      7.77506     10.86147         0.057987      0.488591     -0.159724
O      13.53299      7.74189     11.00837         0.314865      1.068577     -0.605734
O       2.02985     11.68584      2.58603        -0.389170     -0.377873     -0.174920
O       1.93660     11.62621     15.04109         0.131119      0.995130     -0.171336
O      13.77206     11.65411      2.48062        -0.260089      0.887668      0.087173
O      13.66357     11.78128     14.94017        -0.120450     -0.516554      0.078562
O       1.96828     11.69314      6.61448        -0.466918     -0.298200      0.214144
O      13.48674     11.72910      6.78454         0.392035      0.048442     -0.233814
O       1.88567     11.72851     10.95753         0.241060     -1.019850      0.054233
O      13.60571     11.78644     10.87877        -0.046263     -0.959568     -0.287510
O       5.93239      3.80620      2.73787        -0.491619     -0.105680     -0.849254
O       5.74591      3.93792     14.82225         0.240729     -1.184804      0.751355
O       5.84701     15.56568      2.52695         0.001188      0.149721      0.195906
O       5.89816     15.52053     15.04851        -0.252922      1.603856     -0.042058
O       5.75673      3.88914      6.75546         0.728884      0.100115     -0.245841
O       5.78807     15.60342      6.81583         0.384062      0.018418     -0.811772
O       5.86660      3.80751     10.87262        -0.085752      0.463270      0.183979
O       5.81463     15.51979     10.77689        -0.308366      0.837497      0.333851
O       5.84786      7.71196      2.52287        -0.248327      0.630832      0.092056
O       5.80775      7.72498     15.05706        -0.170222      0.019134      0.119896
O       5.80925      7.65187      6.75719         0.204127      1.116494     -0.011089
O       5.83091      7.76815     10.92233        -0.044148      0.115132     -0.338491
O       5.94925     11.67686      2.39588        -0.403868      0.092030      0.480597
O       5.98666     11.69588     15.02980        -0.467552      0.032164      0.349796
O       5.73950     11.66872      6.74958         0.138311     -0.151561      0.022421
O       5.78397     11.72011     10.82894         0.090285     -0.828520      0.216899
O       9.66802      3.90542      2.32872         0.266087     -0.134422      0.711929
O       9.80720      3.92737     15.15027        -0.379490      0.654408     -0.355548
O       9.82951     15.55015      2.50143         0.269101      0.076747      0.672324
O       9.80067      0.13273     14.90957        -0.324615     -0.960264      0.304957
O       9.76311      3.92106      6.73847         0.394009     -0.727587      0.173835
O       9.56287      0.05897      6.56473         0.434395     -0.814199      0.101000
O       9.65163      3.88163     10.79999         0.293542     -0.528382      0.148537
O       9.76687     15.57906     10.91459        -0.397289      1.000081     -0.265163
O       9.84691      7.85918      2.79472        -0.163534     -0.235590     -0.527495
O       9.83844      7.78173     14.89090        -0.023833     -0.254155      0.314543
O       9.62975      7.77114      6.60136         0.482646      0.293294      0.146076
O       9.66142      7.76824     10.83538         0.256092      0.652487      0.142694
O       9.72777     11.65555      2.65501         0.119780      0.460323     -0.495336
O       9.59467     11.66824     15.02488         0.449518      0.493096     -0.103302
O       9.69925     11.71956      6.81059         0.369687     -0.344447      0.291571
O       9.79852     11.72991     10.80820        -0.460246     -0.126023      0.048638
