  # total energy = -7881.96607857 
CRSYTAL
PRIMVEC
    15.6080000000000005    0.0000000000000000    0.0000000000000000
     0.0000000000000000   15.6080000000000005    0.0000000000000000
     0.0000000000000000    0.0000000000000000   16.6239999999999988
PRESSURE
-0.157939 -0.547038 0.231782 -0.079144 -0.033718 -0.015687
PRIMCOORD
320 1
Pb       3.80940      3.80735      4.06955         0.058738      0.024361      0.752886
Pb       3.76405      3.76601      0.03482         0.010572     -0.250385     -0.419704
Pb       3.90994     15.48046      4.25909         0.178394     -0.067151     -0.331823
Pb       3.93587     15.54710      0.08991        -0.242176      0.505116     -0.587654
Pb      15.50869      3.83125      4.15059        -0.022953      0.455728     -0.082732
Pb      15.55055      3.92817     16.56453         0.344919      0.075057     -0.130996
Pb       0.12399      0.00908      4.21415        -0.638831     -0.148007      0.236988
Pb       0.03522     15.54323      0.00843         0.076988      0.363712     -0.096210
Pb       3.99639      4.01837      8.33976        -0.777891     -0.193141      0.388046
Pb       3.89741      0.13048      8.49634         0.316368     -0.369354     -0.240506
Pb       0.06726      3.91937      8.22347         0.014063      0.190458      0.020140
Pb       0.07993      0.07904      8.29817        -0.653248     -0.210598      0.285694
Pb       3.90150      3.98480     12.35543        -0.647951     -0.347539      0.868755
Pb       3.87223     15.60002     12.31966        -0.146750      0.160351      0.491549
Pb      15.52255      3.73749     12.22727         0.177327      0.434030      0.745394
Pb      15.45904     15.59953     12.37335         0.220113     -0.283327     -0.117441
Pb       3.86593      7.72183      4.23128        -0.281824      0.080729     -0.545832
Pb       3.80102      7.81670     16.60480        -0.104358     -0.273071     -0.158179
Pb      15.56054      7.79683      4.07091        -0.368922      0.248449     -0.317258
Pb       0.02032      7.79692      0.01690        -0.198436      0.090954     -0.038604
Pb       4.03274      7.83581      8.23384        -0.639952      0.407783      0.409340
Pb       0.10352      7.85203      8.11927        -0.625696     -0.021722      0.832579
Pb       3.75776      7.85774     12.52332         0.414213     -0.268028      0.051055
Pb       0.00528      7.75832     12.40041        -0.374703     -0.174849      0.268460
Pb       3.97822     11.64983      4.24694         0.089973      0.447128     -0.247296
Pb       3.89790     11.65673     16.53197         0.014882     -0.115511      0.545825
Pb       0.06133     11.78497      4.19938        -0.325191     -0.473842     -0.025646
Pb       0.05612     11.73176      0.05473        -0.158396     -0.591244     -0.134562
Pb       3.89360     11.54218      8.25382        -0.305232      0.331382      0.499477
Pb      15.46550     11.72187      8.35036         0.395965     -0.001959     -0.469409
Pb       3.77626     11.80400     12.58171        -0.304718     -0.133244     -0.629806
Pb      15.44865     11.59732     12.38163         0.263597      0.481713      0.319788
Pb       7.76695      4.00629      4.10527         0.373370     -0.340132     -0.158494
Pb       7.64302      3.67325      0.04990         0.201204      0.497714      0.035451
Pb       7.74982      0.01742      4.09312         0.247931     -0.237502      0.070366
Pb       7.79461     15.39853     16.61325        -0.253789      0.316754     -0.062252
Pb       7.78931      3.97811      8.18605         0.596938     -0.177369      0.536343
Pb       7.76995     15.53654      8.44055        -0.189067     -0.063989     -0.338405
Pb       7.75409      4.13891     12.45315         0.288276     -0.951458      0.328071
Pb       7.85354      0.13341     12.47968        -0.111633     -0.853578      0.354959
Pb       7.61390      7.78668      3.98214         1.161661     -0.276171      0.981162
Pb       7.92286      7.78429     16.55624        -0.341203     -0.289366      0.868121
Pb       7.77843      7.80247      8.43906         0.037749      0.247795     -0.208510
Pb       7.78012      7.85905     12.56998        -0.015989      0.035940     -0.164524
Pb       7.72660     11.73691      4.08926         0.017356     -0.303410     -0.076813
Pb       7.84357     11.50274      0.00310         0.119886      0.590691      0.253050
Pb       7.61761     11.62362      8.38242         0.765706     -0.031965      0.063945
Pb       7.70466     11.68141     12.54309         0.500969     -0.048856     -0.574091
Pb      11.60927      4.03544      4.12264         0.609968     -0.185819     -0.030866
Pb      11.70466      3.73701     16.39972         0.060655      0.485234      1.014049
Pb      11.89253      0.23066      4.21117        -0.285817     -0.306065     -0.164321
Pb      11.72516     15.55055      0.04431         0.217253      0.569061     -0.280506
Pb      11.68872      3.73697      8.16000        -0.013150      0.460627     -0.147977
Pb      11.61990     15.40764      8.22500         0.383270      0.145492     -0.162180
Pb      11.58391      3.90550     12.40625         0.481883     -0.631441      0.130620
Pb      11.88503     15.56347     12.48062        -0.314624      0.095844      0.106567
Pb      11.70595      7.81584      4.05021         0.252962      0.181425      0.190632
Pb      11.64873      7.72518     16.55896         0.312331      0.229496      0.509525
Pb      11.72042      7.82690      8.10613        -0.004197     -0.533036      0.138607
Pb      11.84552      7.56861     12.43769        -0.398809      0.723215      0.189304
Pb      11.51961     12.00291      4.20629         0.562603     -1.198237      0.285444
Pb      11.82887     11.79145     16.61691        -0.508743     -0.379888      0.094014
Pb      11.64343     11.54589      8.12309        -0.056252      0.987143      0.929544
Pb      11.58022     11.57727     12.41632         0.293361      0.452022     -0.124841
Ti       1.91323      1.78561      2.30747         0.417521      1.227014     -1.558842
Ti       1.94449      1.85975     14.65153         0.651182      0.094670     -0.166067
Ti       1.93979     13.58838      2.28040         1.154427     -0.389868      0.671552
Ti       1.96829     13.57852     14.67295        -0.760368      1.542363     -1.417612
Ti      13.69508      1.96074      2.14917        -0.499765     -0.063052      0.665033
Ti      13.77956      1.95211     14.72589        -1.197503     -0.568413     -0.533957
Ti      13.61724     13.63476      2.31148         0.723354      0.155206     -0.004899
Ti      13.69824     13.68757     14.75618        -0.283269      0.308924     -1.243665
Ti       2.03174      2.01757      6.44910        -0.740982      0.355351     -0.621480
Ti       2.03213     13.70614      6.49365        -0.781046     -1.175472     -0.059477
Ti      13.70981      1.95540      6.37708         0.176351     -0.178007     -0.093346
Ti      13.70123     13.63235      6.31642        -0.708508      0.132332      0.858785
Ti       1.92269      2.00930     10.45591         0.173102     -0.014769      0.899917
Ti       1.91170     13.70484     10.53491        -0.364466     -0.758453     -0.668150
Ti      13.54309      1.91286     10.37822         0.423373     -0.097145      0.459212
Ti      13.58459     13.58582     10.46775         0.098128      0.329219      0.581762
Ti       1.92099      5.78596      2.27490        -0.075729      0.389518     -0.367174
Ti       1.92897      5.78575     14.69717        -0.932190     -0.541210     -0.284838
Ti      13.66326      5.88774      2.09447         0.337502     -0.010644      1.646331
Ti      13.62691      5.93495     14.62015        -0.032722     -0.801032      0.297695
Ti       1.95699      5.98599      6.30277        -0.417151     -1.568151      0.326356
Ti      13.71857      5.84880      6.40019        -0.904991     -0.023838     -0.715180
Ti       1.89135      5.91214     10.49760         0.396862     -0.205586      0.326454
Ti      13.64894      5.76314     10.39066         0.618160      0.159295     -0.510890
Ti       2.08820      9.77881      2.27742        -1.629663     -0.252968     -0.194356
Ti       1.89619      9.73504     14.62982        -0.329147      0.639887      0.236767
Ti      13.64588      9.81342      2.20904         0.396526     -0.337142      0.694522
Ti      13.57273      9.82503     14.67796         1.203742     -0.372461     -0.167154
Ti       1.85065      9.83997      6.31102         0.762620      0.040791      0.322265
Ti      13.60478      9.75144      6.29623         0.578499     -0.235766     -0.319962
Ti       1.90913      9.78052     10.57233         0.165245     -0.156554     -0.411151
Ti      13.59568      9.62016     10.44278         0.473885      0.293570      0.030906
Ti       5.86045      1.88477      2.29879        -0.303578     -0.424484     -0.978927
Ti       5.78046      1.91802     14.64385        -0.872107     -0.155860     -0.032892
Ti       5.88523     13.55874      2.17147        -0.700808     -0.122121      0.355700
Ti       5.81188     13.60251     14.68232         0.525698      0.983147     -0.718654
Ti       5.88194      1.98843      6.44338         0.109727     -1.124427     -0.584423
Ti       5.81597     13.61776      6.54292         0.407103      0.166134     -0.618625
Ti       5.88014      1.91767     10.60301        -0.510418      0.206222     -0.085662
Ti       5.82777     13.51951     10.62334        -0.008694      0.726531     -1.246398
Ti       5.81060      5.80450      2.25632        -0.089136     -0.332013      0.105731
Ti       5.72508      5.82710     14.73944        -0.019722     -0.270756     -1.020224
Ti       5.77739      5.80118      6.37230         0.748328      1.677518     -1.564617
Ti       5.85102      5.84330     10.64270        -0.417803      0.462512     -0.244383
Ti       5.80619      9.62174      2.16621         0.660795      1.507215      0.336258
Ti       5.80316      9.67283     14.72573        -0.207515     -0.239853     -0.524961
Ti       5.84860      9.71158      6.27872         0.250184      0.099777      1.322792
Ti       5.77734      9.67378     10.63626         0.314702      0.250071      0.390565
Ti       9.82458      1.91873      2.17443        -0.387284      0.027756      0.672716
Ti       9.67286      1.88431     14.73680         0.532363      0.011429     -0.179862
Ti       9.76901     13.70233      2.18983        -1.415521      0.050062     -0.130052
Ti       9.75538     13.66642     14.66725        -0.124334     -0.509935      0.067914
Ti       9.71514      1.88365      6.27046         0.324133      0.447669      0.534235
Ti       9.62759     13.64383      6.34012         0.782159     -0.825189      1.104285
Ti       9.72222      1.86971     10.49065         0.870432      0.275900      0.623010
Ti       9.72770     13.66037     10.52541        -0.064906     -1.212241      1.395305
Ti       9.83078      5.83285      2.21121        -1.046742      0.544652     -0.173864
Ti       9.63269      5.74612     14.71695         0.733398      0.046614      0.685179
Ti       9.69078      5.82472      6.29580         1.141241      0.090023      0.424087
Ti       9.83279      5.82038     10.48682        -1.176986     -0.138615     -0.045117
Ti       9.74975      9.73865      2.28752         0.116460      0.056170     -0.496437
Ti       9.76579      9.70356     14.77047         0.281399      0.699899     -0.838987
Ti       9.67174      9.69256      6.27180        -0.310190      0.960094      0.111201
Ti       9.75739      9.61677     10.62946        -0.738530      0.621944     -0.242549
O       2.07985      1.80229      0.47588        -0.371986      0.325649      1.340704
O       1.96612      2.03047     12.88280        -0.208634     -0.679338     -0.733058
O       2.04376     13.45201      0.52861        -0.261055      0.276094     -0.693140
O       1.85145     13.66236     12.83490         0.316578     -0.098374      0.962293
O      13.57683      1.82478      0.40349         0.550547      0.430772     -0.440729
O      13.56804      1.90121     12.92581         0.698824     -0.014549      0.551982
O      13.66289     13.59897      0.52262        -0.208131      0.127177     -0.486828
O      13.74952     13.79913     12.94436        -0.046575     -0.051574      0.335024
O       1.92911      1.76816      4.65206        -0.042855      0.204363      0.151188
O       2.04225     13.74101      4.68887        -0.559996     -0.089632     -0.276388
O      13.80200      2.03577      4.55826        -0.654279     -0.475943      0.480827
O      13.73508     13.58124      4.54989        -0.616802     -0.031521     -0.572203
O       1.88698      1.95147      8.68991         0.274283      0.006291     -0.423356
O       1.85862     13.56941      8.72538         0.099086      0.187559      0.158198
O      13.65772      1.94695      8.62738        -0.287613     -0.136910     -0.758066
O      13.52511     13.65034      8.69626         0.197010     -0.193953      0.088441
O       1.91715      5.90090      0.44208        -0.005250     -0.305142      0.607764
O       1.80215      5.86427     12.92785         0.550741     -0.099868      0.477568
O      13.71631      5.97804      0.37605        -0.057999     -0.244637     -1.273151
O      13.42772      5.80185     12.81142         0.775853     -0.079089      0.756764
O       1.98184      5.87798      4.53378         0.072221      0.193009      0.087362
O      13.74568      5.86946      4.59714        -0.310637     -0.171289      0.060867
O       1.84664      5.95125      8.75434         0.018652      0.114891     -0.960322
O      13.79469      5.86667      8.60245        -0.415824     -0.348910      1.139538
O       1.93059      9.91249      0.45328         0.427536     -0.195694      0.442523
O       2.09338      9.80862     12.85797        -0.415410     -0.307496     -0.097887
O      13.70291      9.81447      0.45238        -0.061240      0.162240     -1.531388
O      13.65717      9.68833     12.92277        -0.521408      0.164520     -0.202201
O       1.99273      9.86176      4.54636        -0.237054     -0.592670      0.150528
O      13.68004      9.62949      4.52042        -0.168420      0.270087      0.361540
O       1.93998      9.69613      8.77023        -0.140534      0.025362      0.332896
O      13.68033      9.70535      8.65873        -0.182051     -0.086607      0.731871
O       5.67633      1.83534      0.45537         0.456904      0.544899      1.549447
O       5.72657      1.91037     12.84501         0.173866     -0.395211      0.126019
O       5.84399     13.60601      0.39488        -0.047317      0.236397     -0.408466
O       5.87508     13.67812     12.86162        -0.125875     -0.558900      0.747363
O       5.98145      1.81229      4.67371        -0.415141      0.449623      0.267391
O       5.98103     13.48872      4.73000        -0.307969      0.597761      0.880063
O       5.84946      2.09159      8.80403         0.185974     -0.398845      0.015839
O       5.70123     13.48672      8.78599         0.418141      0.162155     -0.135966
O       5.74433      5.74331      0.52294         0.064918      0.027916     -1.055910
O       5.57643      5.83833     12.89562         0.892220     -0.091526      0.542823
O       5.80332      5.86180      4.56827        -0.084122      0.092155      0.603328
O       5.86719      5.62023      8.84332         0.138316      0.896710     -0.309691
O       5.91492      9.72541      0.40552        -0.565811     -0.425224     -0.615651
O       5.86436      9.54772     12.92842        -0.204533      0.866439      0.399221
O       5.75296      9.79603      4.55208         0.222809     -0.436150     -0.650945
O       5.84200      9.64070      8.84200         0.167500      0.197940     -0.114014
O       9.79189      1.95348      0.41829        -0.174167     -0.218092     -0.733189
O       9.66970      1.91306     12.96077         0.114559      0.251232      0.269301
O       9.77339     13.86205      0.42848         0.086797     -0.440033      0.028371
O       9.64643     13.59435     12.89821         0.235756     -0.117015      0.267450
O       9.82681      1.97355      4.52982        -0.085269      0.296310     -0.473834
O       9.58156     13.32356      4.60035        -0.083372      0.888986     -0.578588
O       9.79932      1.82934      8.74500        -0.225173     -0.025273     -0.476366
O       9.85824     13.70165      8.79409        -0.153205      0.482607     -1.047480
O       9.63554      5.92204      0.46715         0.569701     -0.005679     -0.546277
O       9.78148      5.60314     12.94340        -0.000453      0.402072      0.044478
O       9.83356      5.74298      4.52824        -0.075465      0.016048     -0.103443
O       9.55760      5.85968      8.71706         0.475573      0.221882      0.123319
O       9.64833      9.62001      0.48815        -0.272877      0.099686     -0.643050
O       9.74929      9.71181     12.94645         0.197736      0.211561      0.878555
O       9.67707      9.90123      4.53356         0.284160      0.008932     -0.427205
O       9.55009      9.43932      8.85846         0.580820      0.372340      0.094911
O       3.84901      1.82794      2.69890         0.902892      0.198883     -0.357129
O       3.84291      1.89325     15.05510         0.859307     -0.180257     -0.116283
O       3.96993     13.63250      2.59730        -0.446001      0.679057      0.159083
O       3.86301     13.75042     14.80622         0.854661     -0.716848      0.547739
O      15.55027      1.88833      2.49944         1.026937      0.009621      0.090301
O       0.05562      1.89617     15.02985        -1.020218     -0.162421      0.164734
O       0.02702     13.53305      2.59828         0.566101      0.050763     -0.346558
O      15.59196     13.70956     15.14637         0.766312     -0.628318     -0.208722
O       3.87011      1.95579      6.72758         1.360587     -0.509138      0.270904
O       3.88139     13.63127      6.64580         0.701228     -0.104636      0.446055
O       0.07318      2.02582      6.69072        -0.418529     -0.091814      0.123431
O      15.47336     13.43211      6.61393         1.854420      0.161380      0.423464
O       3.86804      1.94010     10.70710         0.308312     -0.286966      0.153257
O       3.82730     13.50461     10.76484        -0.287318      0.525104      0.822455
O      15.51272      1.89272     10.67370         0.938624      0.626197      0.468869
O      15.58420     13.65796     10.80249        -0.466480     -0.067259     -0.084263
O       3.87448      5.67907      2.61684        -0.044365      0.530156     -0.351128
O       3.81161      5.74455     15.04031        -0.311639      0.707149      0.199855
O       0.03422      5.85090      2.53856        -0.059603     -0.124110     -0.235494
O      15.56325      5.83420     15.04180         0.195792      0.154692     -0.128554
O       3.86279      5.91875      6.69476         0.687616      0.511269      0.106694
O       0.01865      5.78975      6.57021         0.963731      0.310222      0.334381
O       3.82317      5.94569     10.72471         0.990444     -0.133405      0.368442
O      15.56437      5.73395     10.88801        -0.546095      0.277389     -0.331591
O       3.92837      9.69129      2.62064         0.039505     -0.106166     -0.443308
O       3.86224      9.64340     14.98866         0.401408      0.493046      0.363804
O      15.54479      9.70816      2.43796         1.276659      0.498289      0.554775
O       0.02474      9.99298     14.80570        -0.478106     -0.401294      0.716719
O       3.91395      9.73061      6.65510        -0.174682     -0.268432      0.120483
O      15.57509      9.77442      6.64269         0.146758     -0.021872     -0.124683
O       3.87567      9.54285     10.84236         0.227322      0.584480     -0.134382
O      15.51844      9.68904     10.91043         0.339742      0.028044     -0.334589
O       7.90086      2.08152      2.46399        -1.497399     -0.387979      0.130588
O       7.63376      1.99584     15.05283         1.192811     -0.094081     -0.113795
O       7.77554     13.74858      2.57484        -0.057371     -0.476229     -0.393491
O       7.86595     13.58463     15.06376        -0.894120     -0.209324     -0.155305
O       7.81766      1.99573      6.70049        -0.841362     -0.016776      0.087775
O       7.79854     13.64619      6.96714        -0.370177     -0.001662     -0.428567
O       7.83830      1.92496     10.91644        -1.182423      0.037760     -0.484145
O       7.73368     13.59576     10.74521         0.532678     -0.192029      0.086060
O       7.83911      5.93864      2.49829        -0.860877     -0.850096      0.413872
O       7.74268      5.83342     14.92620        -0.318048     -0.023353     -0.052199
O       7.81291      5.74162      6.48005        -0.699465      0.151661      0.649015
O       7.79904      5.86309     10.91515        -0.390695     -0.534076     -0.025813
O       7.69283      9.59775      2.60006        -0.158388      0.698917     -0.559998
O       7.78801      9.65331     15.00329         0.270122      0.207714     -0.111274
O       7.80027      9.82989      6.60984        -0.061296     -0.503890      0.230328
O       7.79500      9.70348     10.98546         0.505889      0.351198     -0.038207
O      11.75254      1.81150      2.51560         0.060544      0.382410      0.128278
O      11.71959      1.86761     15.05161        -0.835801      0.313846     -0.402966
O      11.62378     13.72391      2.60254         0.466576     -0.259094     -0.010914
O      11.71509     13.83667     15.00938        -0.383284     -0.753380      0.016374
O      11.73227      1.82992      6.62686         0.258398      0.413357     -0.185543
O      11.62131     13.58841      6.57971         0.349855      0.544736     -0.098229
O      11.71899      1.75399     10.82825        -1.522410      0.582547     -0.155724
O      11.72490     13.67929     10.91155        -0.377712      0.147038     -0.033395
O      11.75698      5.99184      2.55576        -0.311679     -0.610200     -0.444445
O      11.68659      5.87415     14.99898         0.040140     -0.389935     -0.004628
O      11.70630      5.82905      6.65938        -0.406785     -0.262054      0.203540
O      11.71613      5.81699     10.77386        -0.574646     -0.030898     -0.331083
O      11.64798      9.73769      2.40086         0.056484      0.055882      0.521911
O      11.72225      9.86054     15.09969        -0.609485     -0.724766     -0.208053
O      11.71762      9.79587      6.60737        -1.025957     -0.786526      0.036680
O      11.75665      9.70532     10.84549        -1.161606     -0.319784     -0.061952
O       1.90198      3.78222      2.70484         0.010375      0.579022     -0.836847
O       1.87498      3.77627     14.96364         0.166390      1.621079      0.713214
O       1.88550     15.54437      2.56782         0.218255     -0.792189     -0.010510
O       2.00068     15.57323     15.08026        -0.547454     -0.687160     -0.057138
O      13.65923      3.90521      2.38275         0.006516     -0.101526      0.164955
O      13.71784      3.90531     15.02753        -0.183917     -0.327159     -0.130829
O      13.72808     15.53444      2.55649        -0.254034      0.316853      0.234637
O      13.66705      0.00865     15.05762         0.433180      0.124180      0.151505
O       2.11236      3.96462      6.70713        -0.705879     -0.447766     -0.216780
O       1.87393     15.52790      6.81763         0.307596      0.940994     -0.162897
O      13.72917      3.90841      6.71251        -0.492561     -0.835471     -0.158287
O      13.89202     15.56769      6.58896        -0.841356      0.462533     -0.112518
O       2.01281      3.93707     10.77542        -0.638299     -0.485108     -0.139332
O       1.95619      0.04559     10.69400         0.054684     -0.517158      0.233475
O      13.48952      3.84076     10.73186         0.418842      0.287822      0.018335
O      13.64584      0.02945     10.78285         0.131248     -1.070325      0.198700
O       2.02532      7.83608      2.51250         0.030406     -0.596049      0.116286
O       1.83899      7.89199     14.97375         0.276878     -1.260303      0.183208
O      13.72598      7.76777      2.45253        -0.262008      0.289390      0.281590
O      13.65408      7.80789     14.87803         0.020592      0.333222      0.358098
O       1.88629      7.85398      6.56825         0.344861     -0.164643      0.038420
O      13.61699      7.76167      6.69724         0.281446      0.702298     -0.263526
O       1.90010      7.79590     10.98938        -0.656035     -0.006783     -0.380531
O      13.60459      7.68586     10.73834         0.145316      0.552735      0.226677
O       2.18819     11.67440      2.77158        -1.284850      0.566952     -1.013159
O       2.07910     11.72128     14.93138        -0.128190      0.109436      0.136384
O      13.64609     11.70799      2.57243        -0.311509      0.168467      0.003796
O      13.56463     11.77434     14.92100         0.097754     -0.188664      0.374173
O       1.91966     11.67027      6.71021         0.223420      0.282778      0.053823
O      13.57397     11.62468      6.73708         0.174913      0.407518     -0.475604
O       1.88336     11.63974     10.89364         0.139988      0.063556     -0.208146
O      13.55468     11.68415     10.93161         0.433532     -0.100178     -0.685029
O       5.88025      3.82743      2.69095        -0.285561     -0.070354     -0.604528
O       5.66358      3.87790     14.91625         0.581093     -0.139422      0.538150
O       5.86239     15.54551      2.63378         0.071427      1.029690     -0.272097
O       5.93706     15.52669     15.01065        -0.457026      0.162161     -0.115457
O       5.69086      3.99798      6.62840         0.625308     -1.899111      0.210147
O       5.84375     15.58728      6.88056        -0.018240      0.363493     -0.164846
O       5.75617      3.87523     10.99587         0.712631      0.142236     -0.635520
O       5.75038     15.46861     10.82960         0.238411      1.888264     -0.373376
O       5.75552      7.74283      2.52822        -0.387920     -0.447085     -0.034891
O       5.70263      7.74865     14.92757         0.267261     -0.454092      0.837739
O       5.90881      7.82377      6.75810        -0.132258     -0.757762     -0.278121
O       6.05456      7.81608     10.96317        -0.974193     -1.282868     -0.794157
O       5.73781     11.65809      2.38440         0.664542     -0.009015      0.467670
O       5.80458     11.62732     14.97130         0.033627      0.460131     -0.312282
O       5.87414     11.60062      6.79025        -0.339136      0.686229     -0.111353
O       5.79134     11.67245     10.94892         0.128504     -1.345364      0.277078
O       9.88465      3.92821      2.47478        -0.011165     -0.021798      0.100528
O       9.65260      3.88784     15.18538         0.155535     -0.232537     -0.620589
O       9.65699      0.03650      2.56104         0.336785     -0.412970      0.114429
O       9.60737      0.01065     14.94636         0.040299     -0.031304      0.106383
O       9.74088      3.85022      6.68584         0.386298      0.254731     -0.072082
O       9.71682      0.00762      6.43974        -0.169317     -0.949398      0.721823
O       9.75298      3.85459     10.82806         0.091652      0.017509     -0.282020
O       9.61697     15.52490     10.87679         0.261565      0.980372     -0.105263
O       9.70374      7.83911      2.58104         0.304504     -0.591050      0.340525
O       9.80441      7.75294     15.12655        -0.349366      0.307423     -0.917924
O       9.82521      7.83071      6.47395        -0.381008     -0.763742      0.397168
O       9.70722      7.66758     11.05241         0.412221      0.542845     -0.580018
O       9.51465     11.71956      2.35772         0.673794      0.263174      0.193500
O       9.77212     11.67002     15.21731         0.097935     -0.030429     -0.810935
O       9.77966     11.73937      6.80028        -0.640446     -0.873282     -0.328844
O       9.78586     11.68142     10.83218        -0.074108     -0.720006      0.131550
