  # total energy = -7875.46478495 
CRSYTAL
PRIMVEC
    15.6080000000000005    0.0000000000000000    0.0000000000000000
     0.0000000000000000   15.6080000000000005    0.0000000000000000
     0.0000000000000000    0.0000000000000000   16.6239999999999988
PRESSURE
-0.049958 -0.385431 -0.862836 -0.229675 0.05411 -0.070261
PRIMCOORD
320 1
Pb       4.02924      3.96229      4.12109        -0.569373     -1.014691      0.408508
Pb       4.09855      4.06988      0.16792        -0.098325     -0.032679     -0.382448
Pb       3.87855      0.03540      3.97940         0.390027      0.030288      0.472388
Pb       3.75684     15.57247     16.60062         0.641436      0.159492      0.034352
Pb       0.10040      3.82547      4.20268        -0.229936      0.263805     -0.615985
Pb      15.50918      3.79811     16.59388        -0.250119     -0.005702      0.446306
Pb      15.56791     15.52393      4.01369        -0.527592      0.206168     -0.190458
Pb      15.51122     15.56621     16.55578        -0.165425      0.183820      0.147459
Pb       3.62566      3.73362      8.34993         0.491645      0.177168     -0.589648
Pb       3.88472      0.07571      8.25115        -0.377052     -0.236917     -0.294984
Pb      15.51364      3.78114      8.30058         0.030739      0.391751     -0.479677
Pb       0.11594     15.58115      8.21757        -0.283577     -0.159739      0.103671
Pb       3.87240      3.92758     12.43028        -0.035544     -0.317374      0.176083
Pb       3.83355     15.41204     12.34618         0.237556      0.683940      0.279636
Pb       0.00126      3.83801     12.46275         0.792509      0.267447      0.356252
Pb      15.59945      0.30721     12.66926         0.018478     -0.516072     -0.334668
Pb       3.78815      7.88608      4.27721         0.418587     -0.039905     -0.482082
Pb       3.81900      7.74388     16.58830         0.404709     -0.219927     -0.030344
Pb       0.21609      7.90938      4.27180        -0.759084     -0.389617     -0.628963
Pb       0.04309      7.73760     16.61098        -0.665223      0.065472      0.188311
Pb       3.99814      7.65154      8.19417         0.136655      0.494957     -0.582111
Pb      15.32985      7.73281      8.63917         0.545360     -0.380551     -0.770136
Pb       3.92442      7.88034     12.41269         0.473807     -0.346002      0.415142
Pb      15.56237      7.99342     12.62088        -0.025829     -0.864358     -0.415487
Pb       3.81523     11.67766      4.06306         0.155132      0.300734     -0.398169
Pb       3.89794     11.65182     16.46470        -0.201112      0.120236      0.831211
Pb      15.56729     11.67754      4.04165         0.206904     -0.399376     -0.135441
Pb      15.53890     11.85417     16.56569         0.168757     -0.884212      0.188155
Pb       3.84380     11.65732      8.04852        -0.824184      0.783554      0.773110
Pb      15.58598     11.60228      8.30413         0.490781      0.431115      0.181725
Pb       4.03509     11.65704     12.27521        -0.014953      0.026821      0.393625
Pb       0.23894     11.55619     12.32598        -0.926243      0.445760      0.168194
Pb       7.83731      3.68068      4.20419        -0.044294      0.037982     -0.457661
Pb       7.82524      4.00149      0.09343         0.235981      0.078140     -0.485964
Pb       7.73971     15.41732      3.99898        -0.134868      0.721272      0.679289
Pb       7.89181      0.18824      0.12327        -0.152598      0.399184     -0.259302
Pb       7.55593      3.95769      8.37081         0.601474     -0.326434      0.546479
Pb       7.90488     15.52451      8.31060        -0.754152      0.765240      0.187522
Pb       7.66006      3.72902     12.42815         0.361779      0.174701     -0.333310
Pb       7.63589     15.55344     12.56572         0.137079      0.461336     -0.556729
Pb       7.70480      7.85593      4.16176         0.335120     -0.070655      0.132314
Pb       7.75658      8.00370     16.57134        -0.061391     -1.176702      0.595399
Pb       7.83564      7.73984      8.23969        -0.253142     -0.057087     -0.107862
Pb       7.80462      7.55940     12.38799        -0.278881      0.793723      0.197226
Pb       8.00252     11.71353      4.31814        -0.761831      0.179293     -0.047138
Pb       7.60326     11.71376     16.60538         0.631789      0.159174      0.320191
Pb       7.62163     11.75202      8.10519         1.037430     -0.072992      0.524593
Pb       7.68028     11.46368     12.39037         0.591746      0.401354      0.226876
Pb      11.85275      3.87609      4.41795        -0.510738     -0.190190     -0.738914
Pb      11.82365      4.09157      0.18002        -0.347554      0.076474     -0.007922
Pb      11.53662     15.44631      4.19135        -0.115497      0.184414     -0.689450
Pb      11.56537     15.49075      0.06930        -0.114259      0.614641      0.324931
Pb      11.75194      4.15875      8.45448         0.148472     -0.670794     -0.021978
Pb      11.62244      0.15956      8.27380         0.456602      0.012710      0.628356
Pb      11.83828      3.81287     12.66706        -0.323557      0.221949     -0.954520
Pb      11.80688     15.54944     12.43857        -0.537356      0.746155     -0.589282
Pb      11.75546      7.51721      4.07928        -0.061015      0.425900      0.287321
Pb      11.42269      7.78818      0.03064         0.323687      0.059239     -0.119903
Pb      11.54393      7.94039      8.28379         0.097955     -0.746739     -0.222801
Pb      11.44590      7.95410     12.70678         0.495103      0.012940     -0.206782
Pb      11.69523     11.25514      4.28505        -0.014130      0.696207     -0.643461
Pb      11.79804     11.79242     16.50667        -0.999149     -0.868247      0.192557
Pb      12.03164     11.98958      8.50183        -0.531978     -0.159131     -0.386760
Pb      11.58313     11.92055     12.39343        -0.325429     -0.572785      0.066162
Ti       1.76531      1.82000      2.09279         1.439355      1.490902      1.341548
Ti       1.99048      1.85347     14.83264        -0.336828      1.319921     -0.606833
Ti       1.88767     13.59450      2.12822         0.434073     -0.641072      0.032142
Ti       1.92927     13.58313     14.65101        -0.144439      0.256868      0.383357
Ti      13.47196      1.89694      2.12485         0.036983      0.439577      0.483821
Ti      13.41428      1.90732     14.87669         1.670548      0.622733     -0.604734
Ti      13.50987     13.52805      2.15372        -0.249003      0.409431      0.887721
Ti      13.57600     13.64737     14.64231         0.912552      0.371866     -0.184043
Ti       1.85125      2.01052      6.20874         1.094118      0.061831      0.717725
Ti       1.89470     13.81210      6.14493         1.524629     -0.820464      0.966943
Ti      13.65747      1.83583      6.22851         0.147644      0.897714     -0.411837
Ti      13.67160     13.64622      6.20477         0.273315      0.551437     -0.404891
Ti       1.92976      1.91733     10.53398         0.590084     -0.392981     -1.103681
Ti       1.97570     13.49915     10.48640        -1.117837      1.981546     -1.404218
Ti      13.60416      1.90014     10.44041        -0.033516     -0.220751      1.111311
Ti      13.75142     13.61750     10.62851         1.228545      0.913894     -0.804678
Ti       2.04641      5.72173      2.16920        -0.590166     -0.489997      1.050398
Ti       1.84205      5.72348     14.84951         0.743775     -0.281915     -0.552036
Ti      13.80129      5.86968      2.20817         0.048740     -0.809985     -0.894219
Ti      13.57466      5.96106     14.59641         0.039467     -0.762988      1.572533
Ti       1.92204      5.95687      6.27477        -0.320037     -1.513887     -0.107101
Ti      13.69458      5.80191      6.32952         0.421094     -0.389240     -0.048206
Ti       2.22387      5.87987     10.33488        -1.961445     -0.411294      0.329171
Ti      13.81868      5.73237     10.64551        -0.201670      0.258415     -1.376180
Ti       1.88264      9.62742      2.08543         0.306497      0.922714      0.371073
Ti       1.89633      9.66107     14.59358         0.230195      0.039564      0.622441
Ti      13.62306      9.65675      2.10840         0.792728      0.152786     -0.702256
Ti      13.60712      9.79195     14.55300        -0.429577     -0.798891      0.397302
Ti       1.85440      9.83146      6.38407        -0.072515     -0.313872      0.357410
Ti      13.62256      9.67438      6.36164         0.607993     -0.531835     -0.428718
Ti       2.02509      9.62626     10.47604        -0.284415      0.286020     -1.510676
Ti      13.49362      9.64969     10.58553         0.188717      0.225320      0.811678
Ti       5.78671      1.93576      2.11659         0.958045      0.171596      0.404348
Ti       5.88936      2.04861     14.64677        -0.095287      0.106078     -0.472237
Ti       5.80936     13.66882      2.12071        -0.198088     -0.819731      0.594958
Ti       5.90542     13.77804     14.77792        -0.071886      0.205475     -0.437703
Ti       5.82760      1.96856      6.42494        -0.054411     -0.905176      0.093852
Ti       5.80078     13.80360      6.41904        -0.676197     -0.264803     -1.961556
Ti       5.81612      1.83440     10.48031         0.493355      0.573389      0.651924
Ti       5.89800     13.58819     10.40004         0.000384      1.055180      1.275221
Ti       5.96483      5.87285      2.44009        -0.057444     -0.143252     -1.558077
Ti       5.86328      5.92767     14.58584        -0.363676     -0.819621      0.361802
Ti       5.83139      5.81055      6.31348        -0.042256      0.085721      0.246077
Ti       5.93257      5.86456     10.52815         0.208083     -1.038583     -1.246321
Ti       5.72703      9.79622      2.17251         0.401088      0.068688      1.495818
Ti       5.74931      9.75058     14.69449         1.139753     -0.968303     -1.138179
Ti       5.79389      9.87779      6.29504         0.070283     -1.585780     -1.104998
Ti       5.87853      9.69748     10.42074         0.483710     -0.614128      1.012864
Ti       9.74126      1.94823      2.24647        -0.426836      0.241211     -0.561345
Ti       9.71690      2.01436     14.59490        -1.701670      0.617525     -0.133399
Ti       9.65877     13.54600      2.18061         0.702231      0.519292      0.440666
Ti       9.68022     13.73352     14.60202        -0.143387     -1.321839      0.111855
Ti       9.77013      1.81046      6.32956        -0.536226      1.531068     -1.287222
Ti       9.82615     13.62924      6.46174        -0.685894     -0.979706     -0.482606
Ti       9.67708      1.92459     10.50887         0.020237      0.595524      0.547939
Ti       9.69013     13.64168     10.40554        -0.025669      0.722116      0.266012
Ti       9.77837      5.81179      2.30841        -0.763261     -0.730298     -1.109107
Ti       9.69852      5.91209     14.45843        -0.214867     -1.623398      0.328730
Ti       9.74407      5.67855      6.34814         0.088423      0.662604     -0.105396
Ti       9.86985      5.87162     10.40538        -0.266468     -1.549523      0.571914
Ti       9.61946      9.68554      2.33310        -0.024939     -0.034083     -0.756308
Ti       9.65268      9.82684     14.62776         0.718171      0.841851     -0.167108
Ti       9.69063      9.67670      6.41517        -0.346154      0.389211     -0.577104
Ti       9.75016      9.75091     10.34508        -0.961948      0.314729      0.067037
O       1.96744      1.58679      0.35988        -0.171207      0.280050     -1.226206
O       1.78119      2.09420     13.02020         0.244382     -0.273816      0.018173
O       1.67243     13.61731      0.31162         0.652504      0.172972      0.763596
O       2.02116     13.74582     12.92127         0.104068     -0.841423     -0.984835
O      13.30958      1.85479      0.33951         0.568130      0.241170     -1.009123
O      13.67500      1.76982     13.02858        -0.442062      0.353122      0.211285
O      13.70311     13.34812      0.33767        -0.540413      0.617184      0.238393
O      13.65492     13.85303     12.85016        -0.566110     -0.814928     -0.052675
O       1.85777      1.87855      4.43682        -0.024192      0.358523     -0.179076
O       2.01617     13.57916      4.38760        -0.041165      0.125979     -0.395028
O      13.69939      2.14049      4.38159        -0.163907     -1.039102      0.868671
O      13.47483     13.73004      4.43107         0.407628     -0.509515      0.306123
O       1.85336      2.03519      8.64022         0.161124     -0.339111      1.645608
O       1.77206     13.56826      8.68671         0.212750      0.174387      0.620441
O      13.70364      1.94948      8.68866        -0.062935     -0.160882     -0.600941
O      13.85488     13.53520      8.81292        -0.401285      0.253478     -0.088094
O       2.14462      5.83977      0.39879        -0.073833      0.605695      0.258094
O       1.79050      5.57092     13.10107         0.328972      0.289919     -0.593205
O      13.43532      6.06991      0.39560         0.359596     -0.263959      0.496809
O      13.73351      5.74834     12.84924        -0.014171     -0.189446     -1.127743
O       1.86544      5.68836      4.44499        -0.086613      0.594487      0.578702
O      13.73218      5.62282      4.48389        -0.082198      0.355014      0.140420
O       2.25265      5.98772      8.53505        -0.350294     -0.538440      0.946712
O      13.71763      5.58916      8.71739        -0.078714      0.807132      0.975296
O       1.93302      9.64392      0.31693         0.044696     -0.131942     -0.568501
O       2.14905      9.57817     12.79125        -0.485339      0.537689      0.313528
O      13.87282      9.76882      0.30933        -0.805217     -0.480529      0.418162
O      13.62221      9.75450     12.75884         0.122893     -0.076241     -0.409598
O       1.83535      9.80673      4.57129         0.043885     -0.229465      0.226539
O      13.84946      9.69308      4.59172        -0.712453      0.378120      0.700705
O       1.79282      9.79026      8.65438         0.810969     -0.448257      0.879873
O      13.53110      9.55598      8.76839         0.054075      0.198368     -0.259489
O       5.93792      2.07590      0.34364        -0.198421     -0.349911     -0.554632
O       5.90070      1.98610     12.74590         0.322045      0.005238      1.361193
O       5.91925     13.66435      0.36524         0.226749      0.226808     -1.289569
O       5.91261     13.67500     12.98856        -0.321828     -0.206281     -0.047907
O       5.77827      1.81975      4.68614         0.116387      0.180492     -0.784114
O       5.77769     13.69263      4.58889        -0.183294      0.067975     -0.111976
O       5.85422      1.72860      8.71474        -0.564142      0.495786     -0.427222
O       5.83424     13.78379      8.70042        -0.159422     -0.435969     -1.145673
O       5.93743      5.76979      0.59679        -0.091028     -0.189878      0.105389
O       5.92948      5.74764     12.81659        -0.123637      0.300524     -0.677854
O       5.93689      5.57798      4.54431        -0.068061      0.642471      0.144271
O       5.77973      5.75282      8.68453         0.036555      0.742836     -0.153511
O       5.68180      9.64165      0.44243         0.554177     -0.154376     -1.866120
O       5.88107      9.71045     12.85168        -0.072519      0.435197      0.357351
O       5.76893      9.82014      4.47276         0.166216      0.388307      1.212284
O       5.78578      9.66525      8.71095         0.052035      0.190063     -1.583111
O       9.66026      2.01755      0.40220        -0.226387     -0.354062     -0.403770
O       9.64326      1.74115     12.80629         0.236042      0.404905      0.285639
O       9.73839     13.50711      0.45161        -0.258241      0.045078     -1.255358
O       9.78378     13.61088     12.81248         0.102455      0.416199     -0.481021
O       9.90727      1.81767      4.48371        -0.866373     -0.478459      1.485051
O       9.62684     13.89433      4.68575         0.634677     -0.665094     -0.395967
O      10.01911      2.00890      8.76655        -0.205395     -0.398245     -1.529016
O       9.77659     13.57174      8.60094         0.073645     -0.130411     -0.098741
O       9.64371      5.82886      0.38823         0.506855      0.179107      1.289334
O       9.92144      6.12408     12.60850        -0.781558     -0.663744      0.791096
O       9.89373      6.01644      4.59063        -0.226967     -0.582962     -0.161362
O       9.89329      5.72046      8.54458        -0.283208      0.029917      0.250285
O       9.69502      9.62982      0.53549         0.117292      0.183702     -0.359012
O       9.45073      9.61518     12.82958         1.133421      0.046054      0.320744
O       9.52688      9.82645      4.55858         0.608667     -0.715435      0.122349
O       9.80334      9.73980      8.54222         0.083204      0.069078      0.319572
O       3.97612      1.80824      2.37073        -1.059524     -0.232206      0.130050
O       3.85030      1.81471     14.83919         0.265835      0.090359      0.564655
O       3.83358     13.60876      2.25682        -0.440081      0.388228      0.209828
O       3.94097     13.67373     15.10156        -0.322312      0.003979     -0.441844
O      15.57506      1.91678      2.31883        -0.519483     -0.188327      0.017999
O      15.49532      1.91096     15.09985         0.111600     -0.330940      0.086129
O      15.48324     13.50049      2.55350         0.557533      0.323288     -0.470305
O      15.49959     13.54381     14.87458         0.437258      0.073048     -0.013696
O       3.81678      2.05383      6.75592         0.210610     -0.061976     -0.308874
O       3.83159     13.69129      6.68960        -0.487393     -0.549866      0.091907
O       0.00494      1.81771      6.56523        -0.543033      0.077925      0.002540
O       0.07087     13.76122      6.27220        -1.214896     -0.002707      0.601231
O       3.91072      1.96361     10.86874        -0.489986     -0.183473     -0.281418
O       3.89269     13.55434     10.79748         0.904823      0.155674      0.099355
O       0.11036      2.01863     10.89692        -1.045978     -0.167290     -0.227519
O       0.09385     13.53928     10.88521        -0.693860     -0.193814      0.328456
O       3.97714      5.67383      2.66562        -0.182791      1.166675     -0.686537
O       3.93162      5.97308     14.96505         0.092982     -0.338187      0.071728
O       0.10076      5.73521      2.29797        -0.339939      0.004597      0.012064
O      15.50311      5.66755     15.21496         0.008008      1.195512     -0.631220
O       3.89690      5.77728      6.42383         0.277629     -0.131398      0.342386
O       0.00614      5.98284      6.71172        -0.192648     -0.269166     -0.089725
O       4.07959      5.90152     10.93813        -2.022825     -0.205177     -0.343584
O       0.18412      5.87102     10.56322        -0.950598     -0.488053      0.358763
O       3.86280      9.66649      2.58331        -0.318048     -0.020984     -0.107788
O       3.95948      9.51422     14.94340        -1.371494      0.592983     -0.159376
O       0.03541      9.74334      2.41544        -0.421312      0.136311      0.422551
O      15.60757      9.68259     14.61870         0.530358      0.236922      0.268420
O       3.81527      9.73873      6.62702         0.304783      0.669716     -0.177230
O      15.52216      9.57450      6.80097        -0.295488      0.315422     -0.545766
O       3.97857      9.68380     10.75197        -0.325158      0.252917      0.227246
O       0.16772      9.58778     10.86011        -1.181574      0.420552      0.177149
O       7.80302      1.93861      2.48908        -0.458645     -0.342024      0.264916
O       7.76736      2.10376     14.91747         0.123457     -0.361984      0.111959
O       7.75291     13.51676      2.50171         0.017400      0.496539      0.032736
O       7.84217     13.40542     14.94858        -0.985637      0.715746      0.099866
O       7.77519      1.77290      6.78323         1.051905      0.335881     -0.524302
O       7.68159     13.73836      6.60156         1.074567     -0.153973      0.715197
O       7.77662      1.68524     10.64156         0.395170      0.331989      0.436802
O       7.80349     13.47064     10.65280         0.547864      0.664416      0.265573
O       7.89369      5.67856      2.70783        -0.769946      0.191282     -0.137427
O       7.78128      5.88743     14.73285         0.847153     -0.032048      0.308618
O       7.77001      5.91128      6.68646         0.273405     -0.407631     -0.100583
O       7.78799      5.93850     10.65966         1.377296     -0.259520      0.129280
O       7.73462      9.68530      2.50651         0.009612      0.382198     -0.085746
O       7.80982      9.77327     15.08439        -0.098656      0.234133     -0.194585
O       7.70229      9.72257      6.72936        -0.598071      0.054363     -0.341462
O       7.84264      9.67743     10.68803         0.355923      0.234422     -0.148264
O      11.62128      1.97667      2.33094         1.479024     -0.487812      0.729676
O      11.51884      1.87750     14.92310         1.083255     -0.171378     -0.094157
O      11.59949     13.67757      2.39626         0.804921     -0.170234     -0.000793
O      11.65605     13.67540     14.98393         0.194589     -0.141587     -0.122980
O      11.71373      1.69455      6.41782         0.507306      0.399359      0.511997
O      11.75712     13.60117      6.60373        -0.610051      0.048665      0.333495
O      11.77689      1.85987     10.87143        -0.089555      0.213091      0.116229
O      11.73291     13.60472     10.70055         0.746198     -0.382197      0.342979
O      11.66785      5.80246      2.45671         0.711084      0.494312      0.387085
O      11.66358      5.80187     14.77222         0.292847      0.444841      0.117921
O      11.78147      5.65554      6.54014        -0.467531      0.211109      0.203203
O      11.69129      5.47387     10.65058         0.256928      0.616855      0.129760
O      11.75437      9.57595      2.42211        -0.688360     -0.035531      0.674362
O      11.64492      9.68316     14.90012         0.103435     -0.058304     -0.129252
O      11.57074      9.78139      6.43786         1.600938     -0.014626      0.312135
O      11.62970      9.65078     10.83087         0.826229      0.178583     -0.074293
O       2.13928      3.75350      2.32041        -0.674842      0.382508      0.043798
O       1.90890      3.90079     15.36210         0.593451     -1.342129     -0.766545
O       1.86558     15.55508      2.53844        -0.053587     -1.128298     -0.436727
O       1.84650     15.50202     14.90251         0.048797      0.511299      0.354841
O      13.69832      3.89198      2.17485        -0.479064      0.105383      0.318599
O      13.49665      3.90721     15.06662        -0.028702     -0.834602     -0.319029
O      13.61328     15.56178      2.23885         0.154692     -0.559388      0.459515
O      13.53607     15.55479     15.12460         0.045865     -0.625081     -0.239977
O       1.71531      3.92177      6.58134         0.507423     -0.246662      0.105944
O       2.05762      0.08285      6.49380        -0.455830     -0.840711      0.307685
O      13.71734      3.74681      6.59221         0.166994      0.232797     -0.003683
O      13.76669     15.54543      6.57446        -0.374356     -0.028047      0.165542
O       2.10382      3.96819     10.79244         0.071333      0.059934     -0.427780
O       2.01119     15.60557     10.74013        -0.054103      0.324192      0.186479
O      13.63067      3.80690     10.90129         0.793495      0.167200      0.159031
O      13.80153      0.00062     10.72072        -0.160859     -0.580603      0.376906
O       1.92216      7.74066      2.53389         0.328938     -0.113121     -0.051222
O       1.87937      7.75156     15.02655        -0.227401      0.319640     -0.299361
O      13.87444      7.77374      2.58285        -0.551495     -0.159926     -0.095602
O      13.63993      7.84536     14.69020         0.276527     -0.812968      0.439140
O       2.06110      7.77881      6.45420        -0.087189      0.800021     -0.124675
O      13.51348      7.65134      6.53006        -0.020153      1.835016      0.347923
O       2.07671      7.76096     10.75875         0.470183     -0.538553     -0.036430
O      13.71960      7.64870     10.88581        -0.237823      0.647314     -0.387788
O       1.98627     11.58585      2.42111        -0.271168      1.189112      0.003237
O       2.02599     11.63338     14.93975        -0.149220     -0.275689     -0.532461
O      13.46229     11.58487      2.50976         0.575222      0.389039      0.127249
O      13.56044     11.61367     14.91704         0.037207      1.443870     -0.376681
O       1.79766     11.73675      6.62751         0.304703     -0.574847     -0.234713
O      13.71992     11.79192      6.68690        -0.016583     -1.508503     -0.219359
O       2.04630     11.66326     10.76278        -0.038936     -1.242123      0.583725
O      13.75791     11.56818     10.72590        -0.402909      0.173953      0.283333
O       5.88121      3.75498      2.63238        -0.106662      0.593790     -0.251445
O       5.78856      3.93779     14.97115        -0.112157      0.103613     -0.101427
O       5.84559     15.54966      2.44619         0.207291     -0.057318     -0.150426
O       6.03347      0.14110     14.92562        -0.228746     -2.009856      0.123737
O       5.99491      3.83774      6.69994        -0.660181      0.640189     -0.227974
O       5.67300     15.60589      6.70869         0.091193      0.689801      0.113422
O       5.98870      3.83006     10.63514        -0.082355      0.136221      0.313712
O       5.93691     15.53272     10.88098        -0.929480     -1.086494      0.022624
O       5.89701      7.76342      2.51078        -0.078953     -0.489446      0.622802
O       6.01385      7.79549     14.92394        -0.441470      0.263733      0.125577
O       5.72150      7.83785      6.38086         0.188035     -0.559877      0.665565
O       5.99129      7.75946     10.81006        -0.939040      0.794084     -0.155085
O       5.74811     11.69956      2.18051        -0.146304     -0.320604      0.833755
O       5.81448     11.60735     15.01598        -0.232292      0.672335      0.009736
O       5.74711     11.79840      6.67083         0.230206     -1.431989     -0.081442
O       5.97365     11.67752     10.75852        -1.004101     -0.562569      0.027916
O       9.81555      3.79044      2.61251        -0.441312      1.781259      0.130581
O       9.64432      3.97505     14.71385         0.565117     -0.532464     -0.182743
O       9.71746      0.00596      2.43387        -0.166511     -1.382120     -0.043252
O       9.52122     15.55659     15.00676         0.478985      0.462908     -0.004384
O       9.79619      3.83737      6.26987        -0.387098     -0.610665      0.825808
O       9.77162     15.56702      6.77019         0.127453     -0.178301      0.139921
O       9.45268      3.79485     10.76253         0.785746      0.531507      0.237643
O       9.87586     15.55006     10.57648        -0.306095     -1.220044      0.309702
O       9.62034      7.74424      2.60814         0.550056      0.396088     -0.189632
O       9.83417      7.73939     14.86387        -0.488573      1.123975      0.295165
O       9.69842      7.76696      6.66742         0.274959      0.539374      0.230526
O       9.91332      7.72140     10.40929        -0.239056      0.728861      0.424765
O       9.71490     11.69270      2.73000         0.478865     -0.546879     -0.402997
O       9.82524     11.73188     14.77371         0.063484     -1.327321      0.358538
O       9.48096     11.68497      6.51393         0.482052      0.740793      0.014878
O       9.85040     11.63460     10.67831         0.057155      0.027625      0.418588
