  # total energy = -7884.97563848 
CRSYTAL
PRIMVEC
    15.6080000000000005    0.0000000000000000    0.0000000000000000
     0.0000000000000000   15.6080000000000005    0.0000000000000000
     0.0000000000000000    0.0000000000000000   16.6239999999999988
PRESSURE
-0.919879 -0.875888 -0.48803 -0.073382 -0.026913 -0.01211
PRIMCOORD
320 1
Pb       3.91065      3.90547      4.13336        -0.262194     -0.275129      0.150910
Pb       3.92452      3.93079      0.01159        -0.221555     -0.214546     -0.275323
Pb       3.88252     15.59257      4.10625         0.116462      0.154437      0.087488
Pb       3.85587     15.58643     16.59557         0.122049      0.022987      0.067794
Pb       0.00133      3.87188      4.11250         0.244481     -0.026263      0.511706
Pb      15.56403      3.87079     16.60746         0.057074      0.145147     -0.162476
Pb      15.56693     15.59286      4.08245         0.234025     -0.145434      0.778009
Pb      15.57023     15.57613     16.60232        -0.019835      0.338274     -0.296462
Pb       3.84420      3.87896      8.29578        -0.021257     -0.257008      0.122185
Pb       3.88621     15.60759      8.30303         0.160285     -0.189104     -0.340220
Pb      15.57902      3.86841      8.27484         0.100336     -0.268545      0.224542
Pb       0.01927     15.58701      8.26140        -0.316388     -0.273653     -0.020398
Pb       3.89280      3.89741     12.42181        -0.056002      0.171321     -0.076126
Pb       3.86998     15.55866     12.39798         0.155982     -0.384007      0.527297
Pb      15.58119      3.85490     12.44434         0.256164     -0.009610     -0.372141
Pb      15.57023      0.04749     12.46906         0.118769     -0.145313     -0.029387
Pb       3.87192      7.79717      4.17529        -0.248442     -0.160326      0.055686
Pb       3.86207      7.77296     16.61501         0.268387      0.089063     -0.476009
Pb       0.03453      7.80172      4.14601        -0.108926      0.055173     -0.121739
Pb      15.60180      7.77860     16.60996        -0.091988     -0.302451      0.108717
Pb       3.93388      7.76572      8.22230         0.044379      0.276303      0.455954
Pb      15.55084      7.78577      8.32840         0.175255      0.061817      0.243781
Pb       3.88973      7.80451     12.44951        -0.055161     -0.018471     -0.273538
Pb      15.60232      7.80503     12.46733        -0.392357      0.212916     -0.066856
Pb       3.87375     11.68199      4.11782         0.157575      0.300638     -0.153478
Pb       3.89144     11.65673     16.55982         0.053482      0.282887     -0.128139
Pb      15.58866     11.67580      4.12091         0.117324      0.118327     -0.083462
Pb      15.58123     11.71317     16.57844         0.161223     -0.208604      0.350316
Pb       3.86374     11.67561      8.24344         0.143019     -0.109404      0.221917
Pb      15.58097     11.66717      8.29556        -0.060048      0.432123      0.197511
Pb       3.92496     11.68658     12.41514        -0.517041      0.055828      0.005249
Pb       0.02707     11.65299     12.40397        -0.128203     -0.045414      0.013317
Pb       7.80863      3.86083      4.14272        -0.318943     -0.081327      0.147800
Pb       7.80995      3.91070      0.01215        -0.011729      0.140271     -0.353836
Pb       7.79942     15.55765      4.09227        -0.406218      0.397681      0.417600
Pb       7.81534      0.02885     16.61847        -0.024419     -0.318099      0.108841
Pb       7.73613      3.90582      8.28545         0.659250     -0.007405      0.101825
Pb       7.79331     15.57149      8.30212         0.228600     -0.020392     -0.294686
Pb       7.76631      3.86920     12.43395        -0.306328      0.203100     -0.489011
Pb       7.76563     15.58472     12.45702        -0.137370     -0.289390      0.107858
Pb       7.77223      7.80052      4.13805        -0.096125      0.102545      0.059109
Pb       7.81885      7.83452     16.60410        -0.516770     -0.009997     -0.308826
Pb       7.79035      7.77954      8.27555        -0.454115     -0.047783     -0.128198
Pb       7.82882      7.74010     12.39152        -1.228002     -0.210123      0.853241
Pb       7.84005     11.68439      4.17417        -0.690136     -0.199557     -0.291197
Pb       7.76896     11.68019     16.61838        -0.172858     -0.185796     -0.246015
Pb       7.74412     11.70396      8.23706         0.030585      0.088864      0.205763
Pb       7.76850     11.63808     12.42841        -0.057894      0.407115      0.218992
Pb      11.70040      3.90662      4.15497        -0.061834     -0.313852      0.754668
Pb      11.71216      3.93535      0.00098        -0.113267     -0.366993     -0.596403
Pb      11.63024     15.57305      4.11843         0.369887     -0.124155      0.190247
Pb      11.65560     15.57880      0.00122         0.107650      0.110229     -0.080884
Pb      11.72537      3.91218      8.28315        -1.040062      0.052186      0.468295
Pb      11.68655      0.01766      8.26229        -0.461100     -0.276429      0.316484
Pb      11.74016      3.86976     12.46739        -0.331328      0.043257      0.022741
Pb      11.74761     15.57753     12.43826        -0.317326     -0.244200     -0.236952
Pb      11.68773      7.70113      4.09808         0.386284      0.805119      0.103743
Pb      11.61015      7.78150     16.59963         0.013443     -0.082821      0.032437
Pb      11.65988      7.82951      8.24841         0.156844     -0.134535      0.367413
Pb      11.65566      7.78922     12.48016         0.616755      0.166133      0.000970
Pb      11.65106     11.61497      4.16033         0.357133     -0.184973     -0.231418
Pb      11.71906     11.71136     16.58228        -0.514445     -0.130420      0.135875
Pb      11.77541     11.73609      8.29933        -0.194942      0.019669      0.145272
Pb      11.67619     11.72441     12.44024         0.029979      0.067424     -0.730123
Ti       1.93873      2.00025      2.19891         0.208326     -0.536226     -0.401272
Ti       1.91767      1.99168     14.68980         0.580210     -0.803885      0.025589
Ti       1.87436     13.69987      2.20208         1.123689     -0.401508      0.297265
Ti       1.84715     13.63966     14.75149         1.097237      0.325782     -1.377167
Ti      13.62736      1.92539      2.27187         0.407979     -0.683648      0.064708
Ti      13.66973      1.88579     14.61993        -0.624869      0.273354      0.728789
Ti      13.68331     13.61862      2.19380        -0.872531      0.234741      0.547316
Ti      13.60554     13.58783     14.65527         0.388023      0.837962     -0.470432
Ti       1.90285      1.83749      6.35052         0.001536      0.745890     -0.383129
Ti       1.97586     13.62999      6.42008        -0.946431     -0.356398     -0.658805
Ti      13.54588      1.99005      6.41804         0.873200     -0.955086      0.260603
Ti      13.58715     13.68067      6.38821         0.757272     -0.121767      0.614870
Ti       2.00434      1.82976     10.53953        -0.809755      1.428602     -0.503763
Ti       1.88160     13.59525     10.53066         0.860263     -0.223424     -0.044185
Ti      13.57621      1.94280     10.44940         0.698487      0.114177      0.288814
Ti      13.65287     13.66718     10.55240        -0.452119     -0.420625     -0.619275
Ti       1.87075      5.87208      2.18245         0.394095     -0.349980      0.010633
Ti       1.94516      5.85410     14.61591         0.102057     -0.149083      0.110483
Ti      13.55500      5.74360      2.31987         1.343935      1.387937     -1.025526
Ti      13.67638      5.84084     14.70666         0.089037     -0.217131     -1.077182
Ti       1.93779      5.79196      6.45523        -0.026184      0.277123     -1.227923
Ti      13.66906      5.85194      6.47506        -0.939440     -0.061583     -1.307254
Ti       1.77244      5.91302     10.54827         0.972259     -0.907712      0.708876
Ti      13.53765      5.86252     10.64425         0.392039      0.556784      0.104056
Ti       1.97828      9.76378      2.21035        -0.616419      0.013329     -0.584250
Ti       1.86443      9.72935     14.74065         1.176363      0.041925     -0.786805
Ti      13.62446      9.74800      2.08781         0.214928     -0.413425      1.132773
Ti      13.64992      9.74344     14.76852        -0.250404     -0.604532     -1.366057
Ti       1.91520      9.70940      6.39615         0.405252     -0.157714      0.192662
Ti      13.71217      9.68948      6.39406        -1.217619      0.686800      0.249818
Ti       1.91560      9.72028     10.50314         0.536499      0.243813      0.151241
Ti      13.64566      9.76273     10.43649        -0.017389     -0.367418      0.790475
Ti       5.84300      1.94870      2.23090        -0.276632     -0.308220      0.115702
Ti       5.79014      1.85558     14.75994        -0.490035      0.442233     -0.431081
Ti       5.82071     13.62903      2.24222        -0.612743     -0.190188     -0.502015
Ti       5.83861     13.61895     14.63483        -0.349176     -0.018453      0.427236
Ti       5.81867      1.95822      6.38805         0.490607     -1.026450     -0.885376
Ti       5.87042     13.66387      6.35858        -0.139380      0.133441     -0.341822
Ti       5.83907      1.86795     10.49061        -0.418275      0.813287     -0.055846
Ti       5.84191     13.61434     10.43002        -0.447307      0.140750     -0.463128
Ti       5.72331      5.86063      2.20409         0.531579     -0.775039      0.227634
Ti       5.83931      5.79414     14.67057        -0.631292      0.799783      0.045196
Ti       5.83467      5.74579      6.36885         0.187713      1.236664      0.559483
Ti       5.72260      5.85177     10.46859         0.326757     -0.350987      0.093433
Ti       5.80789      9.67957      2.15378         0.492383      0.978508      0.551683
Ti       5.81087      9.76332     14.63388        -0.014305     -0.678826      0.777756
Ti       5.83985      9.74602      6.31076        -0.240041     -0.491876      0.983745
Ti       5.86623      9.77172     10.53347        -1.199804     -0.763085     -0.896008
Ti       9.77301      1.96615      2.25044        -0.504169     -1.081801     -0.478879
Ti       9.71559      1.86864     14.69371         0.827663      0.661428      0.556810
Ti       9.72911     13.59646      2.22062         0.334154      0.383847     -0.417223
Ti       9.70773     13.59064     14.70195         0.077150      0.440473     -0.775450
Ti       9.68188      1.90529      6.43393        -0.067201      0.578630      1.118259
Ti       9.69394     13.61815      6.31080         0.426607      0.594637      1.912805
Ti       9.67520      1.92072     10.59890         0.950967     -0.061841     -1.903444
Ti       9.63154     13.66329     10.57472         1.323379     -0.370774     -0.470500
Ti       9.65597      5.79100      2.21415         0.119314      0.655101     -0.480426
Ti       9.75237      5.85240     14.70181         0.083108     -0.556517      0.066751
Ti       9.71047      5.90751      6.34186         0.168220     -1.666781      0.557080
Ti       9.72256      5.89648     10.53220        -0.369556     -1.089287      0.531564
Ti       9.68233      9.65683      2.24046         0.710571      0.877043     -0.497817
Ti       9.71124      9.75897     14.63736        -0.278621     -0.417631      1.015380
Ti       9.71429      9.74347      6.44025         0.510168     -0.115092     -0.729990
Ti       9.67769      9.69316     10.61908         0.934452      1.306839     -0.849807
O       1.88072      2.06917      0.39013         0.187448     -0.295555      0.757173
O       1.82752      1.81816     12.91984         0.494748      0.327000     -0.699388
O       2.00310     13.68517      0.42752        -0.357848     -0.269676     -0.456025
O       1.94301     13.65263     12.93830        -0.089829     -0.134410      0.230005
O      13.59084      1.88526      0.51783         0.187754      0.065755     -0.308680
O      13.52643      1.89108     12.84486         0.374082      0.363099      0.394067
O      13.64290     13.72289      0.42845         0.271731     -0.189250     -0.389967
O      13.72112     13.62850     12.86484        -0.441827     -0.256773      0.381364
O       2.03451      1.94555      4.57102        -0.400002     -0.331149      0.143799
O       1.74489     13.55573      4.61865         0.659956      0.050208      0.705901
O      13.59931      2.11948      4.66204         0.066904     -0.280089     -0.641680
O      13.73823     13.70416      4.63004        -0.213572     -0.544627     -0.026687
O       2.01713      1.89385      8.72147        -0.211237      0.044973      0.537597
O       1.97538     13.61669      8.77479         0.147288      0.152664     -0.545534
O      13.70251      1.97863      8.64912        -0.237089     -0.268749      0.926053
O      13.58566     13.59336      8.76086         0.015539      0.443761      0.372016
O       1.88326      5.74366      0.37926        -0.038637      0.194227      0.894899
O       1.99921      5.89459     12.83666        -0.245503      0.028934      0.448936
O      13.75357      5.78585      0.54013        -0.352173     -0.206218     -0.106356
O      13.60008      5.90816     12.86608        -0.097430     -0.330708      0.931797
O       1.97764      5.91412      4.66937        -0.111949     -0.414428      0.125582
O      13.58317      5.82754      4.64684        -0.040480      0.016887      0.072250
O       1.74719      5.92561      8.76732         0.302612     -0.425653     -0.729959
O      13.60997      5.81039      8.90290         0.100439      0.056774     -1.820769
O       2.06553      9.67469      0.41400        -0.569494      0.248258      0.521627
O       1.98807      9.86762     12.94454        -0.369658     -0.398446      0.257139
O      13.87755      9.78942      0.31783        -1.239515     -0.111583      0.336097
O      13.77030      9.78925     12.96675        -0.390148     -0.166861      0.753309
O       1.93226      9.61907      4.60643        -0.122011      0.351450     -0.219801
O      13.52101      9.64525      4.63953         0.481581      0.403225     -0.270769
O       1.84945      9.74295      8.74700         0.300702     -0.468321     -0.515344
O      13.70249      9.72646      8.65999        -0.355203     -0.007637      0.257149
O       5.73963      1.83330      0.44618         0.682190      0.215612     -0.132395
O       5.83505      1.92490     12.99009         0.130442     -0.145974     -0.383632
O       5.70995     13.60636      0.42217         0.479867     -0.141958      0.985263
O       5.86751     13.72040     12.87729         0.102931     -0.251430     -0.684882
O       5.91376      1.85146      4.59319        -0.301695      0.476069      0.209979
O       5.93449     13.55862      4.55920        -0.152444      0.217871     -0.122262
O       5.83314      1.88124      8.69903        -0.101795      0.153470      0.379773
O       5.97587     13.65594      8.59216        -0.365305     -0.314675      1.409783
O       5.68964      5.84447      0.44276         0.265351     -0.110468     -0.142777
O       5.69702      5.79784     12.88247         0.459767      0.016599      0.530284
O       5.76426      5.74563      4.60535         0.349510      0.382967     -0.628384
O       5.82836      5.65052      8.65433        -0.029307      0.581409      1.172410
O       5.90983      9.82070      0.38264        -0.400905     -0.093855      0.583765
O       5.78258      9.80401     12.84727        -0.031858     -0.270123      0.195563
O       5.97082      9.61947      4.57257        -0.643180     -0.000128     -0.624908
O       5.83568      9.78310      8.73186         0.371755     -0.048469      0.424053
O       9.74599      1.67072      0.46246        -0.002602      0.994469      0.842618
O       9.75841      1.87091     12.91397        -0.127271      0.215108     -0.105208
O       9.76256     13.65994      0.40781         0.080388     -0.208394      0.617555
O       9.75459     13.64429     12.89143         0.012454     -0.209844      0.770326
O       9.76259      2.05187      4.70961        -0.041930      0.076482     -1.861756
O       9.69564     13.60698      4.57738         0.124160     -0.002778     -1.241562
O       9.80789      1.84392      8.76577        -0.630038     -0.033860      1.270179
O       9.66490     13.76489      8.80367         0.031530     -0.365060     -0.033343
O       9.76224      5.83194      0.42179        -0.060582      0.064502      0.127811
O       9.88001      5.83782     12.91524        -0.662322     -0.102446      0.765042
O       9.59170      5.79525      4.55123         0.799412      0.103555      0.067844
O       9.72007      5.89592      8.79193        -0.102001      0.321466     -0.295366
O       9.78513      9.74641      0.46180        -0.384064      0.055510      0.299788
O       9.63272      9.65097     12.87700         0.498376      0.424747     -0.182955
O       9.67761      9.66984      4.63614         0.257215      0.462754      0.081834
O       9.67726      9.68017      8.83274        -0.254355     -0.343910     -0.324548
O       3.95853      2.00930      2.54087        -0.918603     -0.395097      0.025034
O       3.88897      1.89511     15.03788        -0.306066      0.291491      0.014856
O       3.81056     13.58820      2.64830         0.444737      0.015912     -0.124308
O       4.00395     13.45270     14.84939        -1.351392      0.005497      0.605191
O      15.57845      1.84539      2.56087         0.582236      0.898577     -0.097872
O       0.02506      1.91219     14.96835        -0.696359     -0.082077      0.227763
O      15.58790     13.57132      2.60061         0.225620      0.462533     -0.597919
O      15.54886     13.72761     14.99930         0.524140     -0.636307      0.300529
O       3.94332      1.86297      6.63531        -0.600104      0.341313      0.403116
O       3.91605     13.65585      6.67643        -0.164832     -0.293363     -0.051728
O      15.57385      1.74177      6.66564         0.443053      1.045105     -0.152162
O       0.06528     13.61397      6.89141        -0.568761      0.038707     -0.644900
O       3.88106      1.95696     10.80419         0.141019     -0.210073      0.295392
O       3.91359     13.64323     10.71979         0.477627     -0.155239      0.443521
O      15.55617      2.03212     10.90125         0.296320     -0.211677     -0.387576
O       0.04582     13.61518     10.81136        -0.707008      0.407002      0.174040
O       3.82877      5.78303      2.61724         0.451019      0.236745     -0.482816
O       3.84190      6.01191     15.01150         0.291897     -0.726889     -0.101818
O      15.59141      5.92582      2.64239         0.177817     -0.493343     -0.199932
O       0.01020      5.86007     14.92604        -0.373955     -0.252200      0.229450
O       3.93879      5.79265      6.73557        -1.375513     -0.128930      0.063209
O      15.52705      5.70183      6.63461         0.411909      0.162102      0.451422
O       3.86418      5.92407     10.75849         0.189527     -0.278942     -0.090762
O      15.48738      5.86505     10.86785         0.820857     -0.133577      0.352713
O       3.89165      9.70723      2.58431        -0.060819     -0.112070     -0.126497
O       3.87148      9.69590     15.01333         0.245452      0.521365     -0.109734
O      15.59702      9.70573      2.49766         0.036244     -0.109725      0.123190
O      15.59653      9.74732     15.07721        -0.318012     -0.209827     -0.268214
O       3.85118      9.70330      6.68746         0.006152     -0.211486     -0.105440
O      15.58475      9.70140      6.74016         0.209240      0.249485     -0.510195
O       3.89058      9.68599     10.77242        -0.085359      0.285442      0.310114
O      15.60793      9.67272     10.78545        -0.359568      0.362716      0.388012
O       7.77954      1.90217      2.64710         0.671865      0.021937     -0.714524
O       7.81519      1.86431     15.07908        -0.282229      0.156929     -0.116902
O       7.78291     13.69872      2.45902        -0.017095     -0.257493     -0.018815
O       7.84139     13.59273     14.94004        -0.032340      0.538556      0.461671
O       7.79232      1.94459      6.68841        -0.532330      0.256317      0.334063
O       7.83958     13.69008      6.69686        -0.651305     -0.880996     -0.192913
O       7.72887      1.85275     10.89925         0.553170      0.276777     -0.080033
O       7.77680     13.55876     10.85048        -0.813250      0.553844      0.098196
O       7.83037      5.86173      2.56731        -0.860283     -0.083337     -0.485982
O       7.76733      5.87810     15.06173        -0.212676     -0.454388     -0.384265
O       7.79750      5.78650      6.72445        -0.176364      0.425293     -0.136830
O       7.78455      5.84373     10.89319        -0.344970     -0.333127      0.059960
O       7.74793      9.70987      2.51868         0.552139     -0.019197     -0.002834
O       7.81902      9.74274     15.04569         0.086830     -0.116857     -0.145587
O       7.74346      9.62753      6.59451         0.831300      0.421069      0.742619
O       7.73152      9.72585     10.98439         0.454516     -0.212866     -0.564550
O      11.69208      2.01690      2.70109        -0.114452     -0.265852     -0.645241
O      11.70806      2.02589     15.05764         0.043697     -0.299176     -0.254018
O      11.73562     13.77524      2.50619        -0.413056     -0.713067      0.143942
O      11.73178     13.61827     15.02311        -0.029419     -0.055871     -0.136587
O      11.65963      1.86530      6.72469         0.415068      0.016347     -0.042263
O      11.63278     13.65484      6.69542         0.468960      0.055044     -0.187530
O      11.73171      1.85020     10.73635        -0.715606     -0.004727      0.491337
O      11.67956     13.65415     10.86319         0.366560     -0.370759      0.277134
O      11.68922      5.81757      2.55874        -0.311610     -0.414992     -0.013947
O      11.75239      5.73639     14.99927        -0.711667      0.053122      0.371280
O      11.67134      5.91874      6.78904         0.033513     -0.286459     -0.439005
O      11.61231      6.02736     10.90514        -0.012628     -0.616380     -0.091065
O      11.65056      9.90410      2.54919         0.432974     -0.450946     -0.314834
O      11.61876      9.66522     15.07357         1.068381      0.391350     -0.280180
O      11.67665      9.65536      6.72516        -0.423352      0.417879      0.002105
O      11.72857      9.79014     10.86067        -0.646849     -0.114257      0.098490
O       2.01874      3.84130      2.62456        -0.892066      0.892148     -0.347857
O       2.03445      3.85051     14.86968        -0.322579      0.991740      0.109963
O       1.98248      0.01045      2.42664        -0.166607     -0.081521      0.352069
O       1.97738     15.54457     14.98581         0.014784     -0.054760      0.495472
O      13.75024      3.86352      2.58104        -0.443632      0.286835     -0.115769
O      13.80618      3.84522     15.04130        -0.701543      0.210020     -0.278516
O      13.75192     15.57889      2.63947        -0.775613      0.388807     -0.382574
O      13.72947     15.59655     14.89097        -0.481881      0.060239      0.352123
O       1.88347      3.79752      6.67429         0.223331      0.544832      0.360268
O       1.96662     15.55246      6.66181         0.203899     -0.077302      0.263935
O      13.53387      3.87144      6.81005         0.508460      0.518189     -0.425727
O      13.68146     15.56755      6.69221        -0.448869      0.028295      0.141400
O       2.03450      4.01729     10.94054        -0.786853     -0.869382     -0.436224
O       1.99135      0.00864     10.79527        -0.310872     -0.404562      0.178176
O      13.49291      3.92698     10.87880         0.224496     -0.773308      0.061751
O      13.67601     15.57209     10.90634         0.101160      0.550601     -0.465003
O       2.00189      7.73924      2.48255        -0.232698      0.348076      0.121035
O       1.78882      7.77429     14.96267         0.488670      0.377794      0.123940
O      13.50666      7.86801      2.42109         0.085796     -0.356155      0.307386
O      13.50599      7.71577     15.02906         0.844521      0.778340      0.195715
O       1.81244      7.71115      6.63407         0.334366      0.450270      0.597501
O      13.65719      7.78449      6.70947         0.201974     -0.617357      0.234516
O       1.85684      7.80615     10.95382         0.287525      0.083436     -0.267273
O      13.59332      7.83924     10.79100         0.189667      0.249369      0.405957
O       1.90405     11.69647      2.49742         0.112371     -0.719125      0.094523
O       1.88286     11.67425     15.07158        -0.084129      0.267056      0.181810
O      13.68679     11.69860      2.46870        -0.237999     -0.051284      0.214537
O      13.70479     11.67564     15.00258        -0.427743      0.233346      0.116546
O       1.99006     11.61558      6.81494        -0.328800      0.411009     -0.744943
O      13.62138     11.71051      6.79639         0.054847     -0.332179     -0.722963
O       1.96660     11.67796     10.82539        -0.079740     -0.113648      0.135162
O      13.76073     11.72004     10.77375        -0.456680     -0.487523      0.352001
O       5.86298      3.88032      2.44425         0.191820      0.224176      0.276385
O       5.77717      3.90524     15.06317         0.310932      0.140502     -0.066153
O       5.73893     15.55429      2.56628         0.405068     -0.287238     -0.149999
O       5.66348     15.57406     15.00688         1.114512     -0.325545     -0.000395
O       5.88913      3.89288      6.66441        -0.311130     -0.886858     -0.023613
O       5.85583     15.53618      6.60634         0.081014      0.580191      0.249136
O       5.82244      3.81787     10.87969         0.128869      0.301130     -0.115444
O       5.77421     15.55274     10.82207         0.438770      0.207766     -0.132278
O       5.86265      7.73155      2.50362        -0.346409      0.469227      0.051498
O       5.77134      7.85217     15.15536         0.716514     -0.490063     -0.790360
O       5.76192      7.79643      6.79527         0.504131     -0.588725     -0.509039
O       5.77266      7.74873     10.77428         0.672968      0.224464     -0.037041
O       5.78000     11.59436      2.60289         0.320050      0.743889     -0.260139
O       6.04653     11.66075     14.92554        -0.724484      0.001191      0.185763
O       5.81858     11.66122      6.56966         0.261132     -0.075643      0.357800
O       5.89075     11.69221     10.78950        -0.246678      0.282130      0.087886
O       9.67876      3.88486      2.39547         0.229536     -0.407488      0.304931
O       9.72324      3.89961     15.15950        -0.276518     -0.393439     -0.431852
O       9.80018      0.02697      2.62422        -0.268849     -0.333177     -0.004835
O       9.82571     15.57418     15.07378        -0.317277     -0.076471     -0.553695
O       9.77827      3.91426      6.85018        -0.103256      0.108637     -0.547780
O       9.58427     15.58373      6.68437         0.921047     -0.191914     -0.288966
O       9.72221      3.84139     10.80591         0.051828      0.119934      0.467641
O       9.69558     15.55605     10.90815        -0.113429      0.597045      0.235590
O       9.80026      7.80290      2.42974        -0.048044     -0.462845      0.536810
O       9.65207      7.76830     15.05047         0.752591     -0.172421     -0.221490
O       9.71644      7.75526      6.65503        -0.195438      0.615019      0.332982
O       9.56706      7.78662     10.99818         1.121648      0.216567     -0.869661
O       9.72508     11.72461      2.62573        -0.095770      0.181563     -0.300762
O       9.83184     11.65692     15.00629        -0.195291      0.363471     -0.147902
O       9.74976     11.68975      6.79268        -0.295124     -0.503693     -0.574600
O       9.67426     11.64953     10.83547         0.177160     -0.075677      0.450489
