  # total energy = -7879.47454949 
CRSYTAL
PRIMVEC
    15.6080000000000005    0.0000000000000000    0.0000000000000000
     0.0000000000000000   15.6080000000000005    0.0000000000000000
     0.0000000000000000    0.0000000000000000   16.6239999999999988
PRESSURE
0.190868 -0.335279 -0.417973 0.018904 -0.312443 -0.066069
PRIMCOORD
320 1
Pb       4.00438      4.05050      4.23626        -0.266268     -0.030837     -0.155144
Pb       3.96636      4.01858     16.48554        -0.329815     -0.120300      0.605332
Pb       3.91295      0.10663      4.01382        -0.039205     -0.803887      0.424996
Pb       3.84076      0.03883     16.44806         0.486233     -0.836800      1.566643
Pb       0.13916      3.84613      4.20241        -0.615233      0.325622     -0.462212
Pb      15.58638      3.76918     16.61628        -0.284389      0.845918      0.603281
Pb      15.41693      0.03690      4.11150         0.231322      0.114342     -0.184739
Pb      15.49504      0.02359     16.56177         0.186308     -0.137132      0.738465
Pb       3.79904      3.80740      8.23382        -0.137801      0.760302      0.039148
Pb       3.91651     15.51841      8.06393        -0.150942      0.507281      0.761447
Pb      15.53985      3.87367      8.37752        -0.144853     -0.226457     -0.326250
Pb      15.59183     15.54119      8.23600        -0.746252      0.706648      0.240177
Pb       3.75234      3.87255     12.58857         0.188733      0.388350     -0.501565
Pb       3.91146     15.52084     12.53339        -0.111056      0.409501     -0.708764
Pb       0.00645      4.00796     12.62365        -0.416335     -0.538243     -0.176482
Pb       0.17092     15.55269     12.45376        -0.802693      0.344896      0.189064
Pb       3.85894      7.88066      4.05156        -0.193533      0.037697      0.835439
Pb       3.98939      7.72911     16.59708        -0.108985      0.765293     -0.226851
Pb       0.10605      7.81739      4.19779        -0.456797     -0.416017     -0.271575
Pb      15.50791      7.74714     16.59733        -0.053951     -0.120111     -0.242438
Pb       3.79618      7.72683      8.31179         0.113722      0.110353     -0.259606
Pb      15.35637      7.67694      8.49595         0.299009      0.102855     -0.510285
Pb       4.00001      7.80362     12.32866        -0.207750     -0.205295      0.892181
Pb      15.44957      7.77813     12.52030         0.198777     -0.143489      0.268186
Pb       3.80024     11.69230      4.02104         0.756507     -0.061520      0.428825
Pb       3.94987     11.63775     16.59613        -0.016102     -0.145712     -0.045404
Pb      15.56835     11.65747      4.10973        -0.090197      0.161490      0.177787
Pb      15.49528     11.73566     16.53835         0.357244      0.578922     -0.216428
Pb       3.85876     11.85864      8.25122         0.445550     -0.474377     -0.633173
Pb       0.14348     11.64425      8.14134        -0.883327      0.167742      1.148846
Pb       4.00870     11.53073     12.23064        -0.148679     -0.017950      0.894547
Pb       0.15387     11.65193     12.42852        -0.069090      0.311571      0.349948
Pb       7.83020      3.68930      4.12983        -0.286220      0.909977      0.403192
Pb       7.97902      4.01022     16.57516        -0.417016     -0.366186      0.048672
Pb       7.84769     15.46936      4.14053        -0.446458     -0.173062      0.067628
Pb       7.83728      0.13858     16.54462        -0.423786     -0.329701      0.179626
Pb       7.60209      3.78911      8.50122         0.595205      0.569187     -0.766073
Pb       7.75599      0.05547      8.16135         0.018832     -0.622337      0.465716
Pb       7.79658      3.55882     12.55558         0.290568      1.224204      0.004866
Pb       7.71922     15.42522     12.43484         0.181335      0.540551      0.232515
Pb       7.96898      7.85331      4.21444        -0.703965     -0.436920     -0.244538
Pb       7.63469      7.77400     16.61227         0.884588      0.626440      0.102546
Pb       7.76988      7.81869      8.12715         0.045284     -0.446572      0.439798
Pb       7.80333      7.65926     12.38559         0.306442     -0.293026     -0.092184
Pb       7.87661     11.56392      4.15265        -0.152876      0.971471     -0.384121
Pb       7.76086     11.88721     16.53001         0.201389     -0.630730      0.462300
Pb       7.77065     11.68487      8.14044        -0.203827      0.478361      0.909747
Pb       7.84589     11.59545     12.33002        -0.150334     -0.049086      0.539062
Pb      11.76295      3.66293      4.23349         0.053879      0.692320     -0.016097
Pb      11.69022      4.10127      0.31732        -0.027090      0.006982     -0.990147
Pb      11.38330     15.42266      4.10832         0.821171     -0.004115      0.026653
Pb      11.71936     15.57796     16.51472        -0.234729     -0.095684      0.869346
Pb      11.66656      4.14929      8.42143         0.032583     -0.861749     -0.575882
Pb      11.75649      0.24597      8.43022         0.489078     -0.277253     -0.424896
Pb      11.83353      3.77473     12.51424        -0.738421      0.373984     -0.141024
Pb      11.55030     15.54352     12.38292         0.482735      0.058185     -0.054323
Pb      11.57482      7.72891      4.16826         0.609691     -0.194481     -0.106895
Pb      11.70844      7.88151      0.04242        -0.482829     -0.189169     -0.276371
Pb      11.63998      7.80118      8.37749        -0.018547     -0.186333     -0.516424
Pb      11.49088      8.03117     12.50102         0.183961     -0.808021     -0.116571
Pb      11.86731     11.31367      4.15024        -0.609451      1.184569      0.464425
Pb      11.67432     11.62017     16.61235        -0.326424      0.752014     -0.011406
Pb      11.80984     11.90988      8.39988         0.028377     -0.211113      0.339890
Pb      11.85019     11.79199     12.47660        -0.516823      0.178993     -0.196121
Ti       1.97263      1.93812      2.29480        -1.385027     -0.547789     -0.521670
Ti       1.88680      1.88393     14.83238        -0.905970      1.091091     -1.156788
Ti       1.84482     13.57494      2.20203         0.332328      1.642431     -0.217154
Ti       1.96903     13.62241     14.64644        -0.805536     -1.019604      0.525893
Ti      13.61576      1.93665      2.17196         0.775785     -0.282832      0.549465
Ti      13.50813      1.99393     14.71112         0.808933      0.637746      0.723263
Ti      13.58568     13.59130      2.22691        -0.860080      0.912753     -1.070765
Ti      13.58302     13.76175     14.62861         0.722510     -0.944456      0.679224
Ti       1.84788      2.03537      6.43493        -0.356235     -0.393023      0.005111
Ti       1.79969     13.73232      6.26164         1.092826      0.380077     -0.377835
Ti      13.58848      1.96821      6.26573         0.612846     -0.697695      1.414221
Ti      13.63911     13.61664      6.31212        -0.944158      1.620590      0.205592
Ti       1.97987      2.00059     10.53421        -0.961986      0.023145     -0.436041
Ti       2.03499     13.72040     10.50921        -0.752680     -0.008469      0.806135
Ti      13.74736      1.86064     10.62695         0.047848      0.473703     -0.248896
Ti      13.68279     13.63790     10.53566        -0.211696      0.713779     -1.287539
Ti       1.89072      5.80719      2.10220        -0.055395      0.545973      1.049836
Ti       1.88820      5.87674     14.74707         0.037439     -0.543900      0.340219
Ti      13.66919      5.90432      2.23145        -0.082468     -0.899605      0.449933
Ti      13.56607      5.90295     14.77365         0.129515     -0.358238     -0.028468
Ti       1.86545      5.98019      6.35178         0.812680     -1.050845     -0.365452
Ti      13.62716      5.79611      6.27516        -0.417138      0.435690     -0.381316
Ti       1.87414      5.93429     10.67068         0.330975     -0.606943     -1.210655
Ti      13.59322      5.80935     10.62732        -0.232465     -0.522230      1.287278
Ti       1.87536      9.72983      2.16764         0.507749     -0.286203     -0.209625
Ti       1.87291      9.69199     14.74544         0.967005      0.735878      0.028693
Ti      13.67631      9.70914      2.12125        -0.257387     -0.153112     -0.234162
Ti      13.63121      9.88433     14.62827        -0.336870     -0.870034     -0.328875
Ti       1.82012      9.73377      6.37032         2.480094     -0.486800     -0.294055
Ti      13.57440      9.77923      6.54043         0.070639     -1.794638     -0.302133
Ti       1.83176      9.70151     10.56866         0.999696     -0.543881     -0.860014
Ti      13.60660      9.71244     10.61762        -0.257347      0.501871     -1.180293
Ti       5.82829      1.94329      2.18292         0.204076      0.279459      1.426526
Ti       5.75108      1.95654     14.63584         1.811100     -0.046144      0.694479
Ti       5.80971     13.63916      2.14130         0.920731      0.158529     -0.211078
Ti       5.81241     13.67918     14.56311         0.574042     -0.617042      0.698417
Ti       5.80837      1.96625      6.32191        -0.103679     -1.183799      0.558557
Ti       5.82995     13.61028      6.33428         0.681904      0.774976      0.138912
Ti       5.75264      1.90623     10.49811        -0.226092     -0.448121      0.673656
Ti       5.88007     13.58419     10.50036        -0.476787      0.344714     -0.766359
Ti       5.78281      5.88820      2.31624         1.019437     -1.007048      0.380962
Ti       5.89895      5.81647     14.66887        -0.534085      0.817141     -1.903551
Ti       5.90282      5.82122      6.35742        -0.779750      0.494963     -0.101764
Ti       5.79383      5.75625     10.54318         0.773207     -0.068014     -0.476105
Ti       5.87233      9.69697      2.31457        -0.210747      0.953500     -1.578494
Ti       5.95101      9.78554     14.62158        -1.116150     -0.387928      0.873481
Ti       5.82374      9.73883      6.36476        -1.457177     -0.161711     -0.409962
Ti       5.91065      9.64695     10.36715        -0.495093     -0.215730     -0.311607
Ti       9.77090      2.02916      2.23093        -0.230730     -1.587319     -1.629976
Ti       9.71542      1.92582     14.72641         0.029793      1.633110     -0.155091
Ti       9.66403     13.68723      2.07326         0.604538     -0.692200     -0.095646
Ti       9.73251     13.68691     14.64320        -0.013800     -0.735914      0.886003
Ti       9.72264      1.90073      6.44600         0.651619      0.625099      0.447250
Ti       9.80782     13.60089      6.48324        -1.210095      0.766768     -1.560054
Ti       9.68472      1.90216     10.53795         0.591422      0.418831     -0.496257
Ti       9.66971     13.61444     10.51148         1.126036      0.043280     -1.094102
Ti       9.70679      5.81432      2.31940         0.287681      0.506673     -1.241935
Ti       9.74691      5.91954     14.65467         0.038250     -0.801495     -1.124931
Ti       9.72046      5.77483      6.34817         0.525604     -0.775064      0.929279
Ti       9.77973      5.75741     10.55237        -0.731854      0.075841      1.123802
Ti       9.70511      9.74676      2.22764         0.478083      0.289944     -2.955305
Ti       9.76699      9.77393     14.66183        -0.831275     -0.253364      0.503109
Ti       9.77340      9.78367      6.39732        -0.011652     -0.675320     -0.020371
Ti       9.70482      9.76334     10.41363         0.548379     -0.685674     -0.239835
O       1.87575      1.80077      0.53578         0.294708      0.581459     -1.222581
O       1.89507      1.88781     13.01761         0.069202      0.018757      0.798751
O       2.02032     13.58104      0.44383        -0.095346     -0.042529      0.236121
O       1.89578     13.69080     12.86026         0.286940     -0.009554     -0.191302
O      13.67464      1.73291      0.39934        -0.491362      0.469129     -0.212429
O      13.88545      2.09009     12.98273        -0.908394     -0.467352     -0.338831
O      13.44778     13.38601      0.40531         0.824432      0.605873      0.517769
O      13.56358     13.71028     12.88467        -0.289483     -0.358364     -1.135917
O       1.75344      2.07466      4.67029         0.527100     -0.151777     -0.962047
O       1.79085     13.76225      4.50481         0.075006     -0.593336      0.238539
O      13.60963      1.97652      4.51567         0.103894     -0.036638     -0.748245
O      13.74887     13.58166      4.51667        -0.524795     -0.412222      0.279272
O       1.86676      2.07365      8.73428         0.172107     -0.289211      0.227906
O       1.87630     13.79430      8.76281         0.268378     -0.786752     -0.259774
O      13.74080      1.91458      8.83945        -0.599554     -0.089308      0.022398
O      13.55328     13.79460      8.65158        -0.005057     -0.688957      1.418835
O       2.01307      5.74299      0.33758        -0.125323      0.694959      0.028247
O       1.87766      5.82083     12.98316        -0.099098     -0.294173     -1.024359
O      13.58333      5.87644      0.44159         0.369885      0.218082     -0.159307
O      13.61703      5.79728     13.00236         0.129603      0.112627     -0.481886
O       1.91830      5.95401      4.52987        -0.151723     -0.110112      1.127901
O      13.61616      5.87403      4.47831        -0.087717     -0.089007      0.209240
O       1.87080      5.95171      8.84613        -0.267261      0.126940      0.493387
O      13.60194      5.80096      8.87046         0.117535      0.072595     -0.993172
O       1.76806      9.84546      0.39264        -0.251818     -0.101986      0.179301
O       1.78562      9.85736     12.97674         0.332804     -0.397396     -0.296936
O      13.64509      9.82683      0.29646        -0.071563     -0.133773      1.066309
O      13.65620      9.77026     12.75592        -0.366868      0.224844      0.620641
O       2.02575      9.74584      4.58400        -0.451115     -0.111455      0.092576
O      13.51558      9.72485      4.75781        -0.000235      0.174157     -0.544429
O       1.73497      9.51472      8.79095         0.447372      0.628188     -0.354760
O      13.63893      9.74978      8.78731         0.233367     -0.516267     -0.240712
O       5.90122      2.05948      0.48644        -0.377709     -0.249030     -1.808062
O       5.83946      1.88842     12.89834        -0.450372      0.178694     -0.708913
O       5.77547     13.67258      0.34282         0.130626     -0.142343      0.320778
O       5.91840     13.49918     12.77925        -0.413446      0.401289      0.537374
O       5.83722      1.78159      4.59610        -0.230173      0.711301     -0.536048
O       6.02978     13.73106      4.60682        -0.043078     -0.391264     -0.702867
O       5.63581      1.87717      8.72996         0.774665      0.391406     -0.060663
O       5.75585     13.50580      8.70189        -0.053512      0.403324      0.603294
O       5.81533      5.76715      0.52785        -0.044876      0.530850     -0.467417
O       5.65232      5.83557     12.83621         0.866828      0.079575      0.861985
O       5.83361      5.87882      4.57650        -0.142743     -0.333889      0.152044
O       5.94709      5.71236      8.71146        -0.473850     -0.270640      0.593012
O       5.76322      9.56006      0.50712         0.404052      0.375550      0.332087
O       5.84853      9.65906     12.83629         0.198276      0.102338      0.309477
O       5.80446      9.73182      4.53111         0.213699      0.148254     -0.016928
O       6.02138      9.76620      8.56499        -0.285851     -0.370923      1.441903
O       9.73783      1.91175      0.35932        -0.240685      0.237232      1.188235
O       9.58752      2.06700     12.94281         0.268764     -0.893770     -0.332108
O       9.69739     13.68961      0.27228        -0.386396      0.130250      0.246050
O       9.74170     13.59368     12.86998        -0.168074     -0.054239     -0.451446
O       9.88676      1.95492      4.67773        -0.383374      0.108244     -1.037518
O       9.62269     13.72116      4.61742         0.224421     -0.431666      0.471305
O       9.72752      1.81529      8.70510         0.031670      0.429107      0.686609
O       9.79814     13.51387      8.70267         0.050862      0.355404      0.674099
O       9.61847      5.74143      0.46883         0.330706      0.191065      0.291557
O       9.61195      5.74587     12.84834         0.661259      0.746327      0.901460
O       9.89967      5.64370      4.61247        -0.242578      0.784756     -1.551951
O       9.80026      5.75230      8.76133        -0.003497      0.109697     -0.142440
O       9.64966      9.66182      0.33420         0.785304      0.032402      1.672597
O       9.74650      9.70305     12.82993        -0.021257      0.217387      0.264333
O       9.70991      9.51234      4.50992         0.444553      1.251407      0.670241
O       9.59641      9.68184      8.59765         0.283925     -0.176727      0.654385
O       3.79895      2.00914      2.58651         0.970092      0.092090      0.011393
O       3.86870      1.92276     14.99414        -0.234442      0.403123      0.027502
O       4.03880     13.69378      2.61639        -2.024937     -0.353731      0.029781
O       3.91692     13.68974     14.91717        -0.470113     -0.058641     -0.335619
O      15.51185      1.81473      2.52526         0.514003      0.556148      0.254308
O      15.58042      2.08526     15.13846         0.475167     -1.598150     -0.563569
O      15.54493     13.53161      2.38663         0.330988     -0.091175      0.004966
O      15.51276     13.67371     14.93140         0.179742     -0.247277      0.240455
O       3.82849      1.91799      6.70835        -0.039082      0.115802     -0.476024
O       3.88119     13.72832      6.57515        -0.897879     -0.729339      0.014041
O      15.52801      1.84972      6.66463         0.418981      0.444751      0.266902
O      15.49134     13.69062      6.70122         1.484077     -0.600027     -0.183739
O       3.82343      1.83593     10.89437         0.792553      0.073173      0.194069
O       3.89730     13.54575     10.79297        -0.078762      0.256136      0.142176
O      15.58677      1.84849     10.81771         1.089701      0.138225      0.323036
O      15.55767     13.60156     10.84437         0.765549     -0.014268     -0.194492
O       3.91631      5.97241      2.67861        -0.529882     -0.426440     -0.945756
O       3.83560      5.86941     14.91105         0.593192     -0.378189      0.636893
O       0.05575      5.87508      2.54921        -1.180395      0.467990     -0.446970
O      15.48352      5.77841     15.05423         0.867450      0.321066      0.109890
O       3.81534      5.79368      6.69292         0.219610     -0.185389     -0.006309
O      15.50523      5.86071      6.64010         0.710002      0.372040      0.271137
O       3.80407      5.95806     10.88556         0.583928     -0.808138     -0.277723
O      15.56133      5.84002     10.92988        -0.021427      0.229941      0.181356
O       3.82039      9.81844      2.38616         0.140069     -0.524210      0.520386
O       3.81379      9.72358     15.14481        -0.104005      0.165447     -0.631001
O      15.53907      9.73688      2.74101         0.005595      0.459898     -0.999802
O      15.45219      9.83487     14.94329         0.944769     -0.016819      0.096809
O       3.95267      9.69085      6.72873        -0.521801      0.575139      0.217030
O       0.02363      9.63382      6.57711        -1.032153      0.322866      0.404513
O       3.91892      9.46803     10.62615         0.660593      1.359767      0.280947
O      15.60031      9.83517     10.75526        -1.106486     -0.132971      0.726479
O       7.76161      2.01391      2.57154         0.710772     -0.000967     -0.394608
O       7.67776      1.98441     14.94375         0.706825     -0.079547      0.294598
O       7.81308     13.73233      2.44892        -1.025985     -0.080067      0.039982
O       7.74494     13.62943     14.97109         0.393978      0.279983     -0.453995
O       7.78299      1.90657      6.66046        -0.435034      0.239350      0.144483
O       7.85604     13.73191      6.84441        -0.912390     -0.810231     -0.531381
O       7.71583      1.92155     10.78251         0.091571      0.116181     -0.121541
O       7.74773     13.55349     10.80177         0.896132      0.039532     -0.000272
O       7.88366      5.64141      2.66306        -0.895152      0.747990     -0.112171
O       7.80904      5.87220     14.89164        -0.836942      0.029198      0.508823
O       7.78642      5.79315      6.62424        -0.273319      0.167961      0.091867
O       7.79916      5.83851     10.78406        -0.503090     -0.478726     -0.000466
O       7.89102      9.69880      2.46541        -1.795902     -0.096173      0.840300
O       7.74589      9.76300     15.07500        -0.234602     -0.035027     -0.717585
O       7.76970      9.90284      6.52963         0.212978     -1.238949     -0.166418
O       7.83764      9.58293     10.81614        -0.739798      0.181652     -0.200955
O      11.72156      1.94426      2.53019        -1.080055     -0.185496     -0.199421
O      11.63500      1.92158     14.93243         0.179725     -0.492313     -0.267995
O      11.56822     13.81099      2.27071         0.432417     -0.818627      1.001357
O      11.65181     13.61431     15.03049        -0.435342      0.690435     -0.581827
O      11.75545      1.92587      6.67368        -1.190104      0.050939      0.354762
O      11.65785     13.54187      6.58124         1.073159     -0.269764      0.166738
O      11.60349      1.83037     10.91666         0.433099     -0.027112     -0.125768
O      11.63720     13.74941     10.83933        -0.103839     -0.603106      0.090379
O      11.70524      5.86348      2.29991         0.318060     -0.085845      0.787927
O      11.65299      5.95610     15.05293        -0.206719      0.012876      0.244068
O      11.70728      5.72354      6.66591        -0.046326      0.319038      0.419998
O      11.71488      5.69763     10.88093        -0.156716      0.222546     -0.063468
O      11.69436      9.68776      2.58102         0.330410     -0.042053     -0.555276
O      11.64094      9.62589     14.94635         0.642061      0.245088     -0.167455
O      11.65152      9.78501      6.78091        -0.076673      0.110748     -0.213618
O      11.63279      9.66949     10.70730         0.286876      0.275836      0.318084
O       1.80833      4.00251      2.48069         0.677866     -1.453794      0.288300
O       1.85808      3.91790     15.10719         0.727015     -0.979316     -0.467403
O       1.90933      0.01909      2.56243         0.200103     -0.613993      0.116161
O       1.90881     15.51000     15.14034        -0.175452      1.220572     -0.740263
O      13.68708      3.83384      2.44945        -0.317079      0.701862     -0.232234
O      13.53306      3.84847     15.17364        -0.101941      0.558980     -0.191251
O      13.57871     15.47541      2.49522         0.428840      0.077239      0.061681
O      13.66662      0.00451     14.98005        -0.486994      0.294624     -0.017637
O       1.78197      3.95254      6.72775         0.314373     -0.255765     -0.072940
O       1.90036     15.59193      6.69441        -0.204291     -0.091367     -0.256836
O      13.62133      3.86003      6.69958         0.412521      0.479884     -0.168821
O      13.62375     15.58880      6.57519        -0.146990     -0.538423      0.052527
O       1.93548      3.88029     10.89675         0.095508      0.163388      0.348505
O       1.98527      0.04529     10.96586        -0.059228     -1.456811     -0.560773
O      13.69203      3.87555     10.99707        -0.057360     -0.212870     -0.403008
O      13.63709     15.56674     10.87511        -0.147666      0.096560      0.228608
O       1.81502      7.84275      2.45091         0.496089      0.146408     -0.042591
O       1.86789      7.78519     14.93503        -0.581509      0.537110      0.483290
O      13.67009      7.85116      2.44319         0.041697     -0.348856     -0.012949
O      13.70193      7.83988     15.04390        -0.255263     -0.101145     -0.174103
O       2.08083      7.80752      6.67055        -0.864552      0.187209     -0.255750
O      13.52872      7.73503      6.72263         0.183330      0.355472      0.486907
O       1.86170      7.81483     11.06076        -0.454035     -0.042800     -0.117429
O      13.63735      7.79236     10.85805         0.244405     -0.007827     -0.054307
O       1.94212     11.70005      2.59693        -0.323691      0.056716     -0.182645
O       1.80769     11.77548     14.95921         0.408746     -0.469514      0.136745
O      13.55792     11.58907      2.57720         0.191535      0.351932      0.047150
O      13.42132     11.74901     14.83131         0.471185     -0.972869      0.052643
O       1.91473     11.71813      6.62500        -0.003069      0.120320      0.108329
O      13.71278     11.63728      6.76482        -0.021502      0.861886     -0.161218
O       2.06899     11.58868     10.93401        -0.548253      0.971663     -0.859178
O      13.48110     11.72499     10.67375         0.118115      0.053461      0.649020
O       5.74277      3.92045      2.62463         0.035366      0.012020      0.270377
O       5.92931      3.98664     14.97398        -0.991747     -1.095940     -0.077457
O       5.81101      0.03868      2.46634        -0.023207      0.061311     -0.092166
O       5.86386      0.00927     14.88241        -0.381799     -0.030249      0.015598
O       5.71958      3.83293      6.59554         0.505216      0.277065      0.141028
O       5.84497     15.54925      6.71178        -0.056195      0.787812      0.054882
O       5.70492      3.75410     10.90020         0.060310      0.916568     -0.525535
O       5.90891     15.46900     10.98458        -0.838200      0.701388     -0.753532
O       5.97136      7.81896      2.61005        -0.220386     -0.830542     -0.085112
O       5.77959      7.77488     15.09394         0.372006      0.027785     -0.538202
O       5.81064      7.74912      6.63917         0.582428      0.209118      0.162282
O       5.82645      7.66355     10.70879         0.477912      1.007153      0.039561
O       5.82334     11.66895      2.42759         0.451465      0.029768      0.410537
O       5.85745     11.70516     14.95089        -0.475776     -0.351558     -0.053095
O       5.75900     11.75046      6.65620         0.212213     -0.834195     -0.087778
O       5.92384     11.62870     10.81141        -0.425317     -1.163917     -0.428212
O       9.84614      3.86217      2.56295        -0.059357     -0.268722     -0.057714
O       9.77835      3.90219     14.98245        -0.398584      0.184252      0.370027
O       9.64855      0.05510      2.49189         0.196511      0.212046      0.121371
O       9.67183      0.00915     14.84984         0.018800     -0.501881      0.314795
O       9.68258      3.91373      6.74206         0.130724     -1.225628      0.242708
O       9.73285     15.54518      6.60923         0.304493      0.791704      0.624686
O       9.80401      3.81150     10.96693        -0.576826     -0.211349     -1.008166
O       9.62051     15.53948     10.82856        -0.023061      0.126755      0.233104
O       9.78863      7.79129      2.44020        -0.339485     -0.937891      0.745504
O       9.61178      7.84564     14.86531         0.302711     -0.765192      0.224840
O       9.81383      7.72410      6.56706        -0.492545      0.706503      0.412739
O       9.87701      7.71267     10.79665        -0.562064      0.327608      0.066747
O       9.57864     11.72411      2.38720         0.766624     -0.390931      0.376294
O       9.78084     11.65099     15.02505        -0.390722      0.652466     -0.475492
O       9.62154     11.61136      6.71896         0.857388      0.710742     -0.868801
O       9.69637     11.64452     10.81182         0.153448      0.026364     -0.266389
