  # total energy = -7883.48783989 
CRSYTAL
PRIMVEC
    15.6080000000000005    0.0000000000000000    0.0000000000000000
     0.0000000000000000   15.6080000000000005    0.0000000000000000
     0.0000000000000000    0.0000000000000000   16.6239999999999988
PRESSURE
0.121751 0.040548 1.47335 0.072212 0.093791 -0.046494
PRIMCOORD
320 1
Pb       3.85017      3.80616      4.10207        -0.446670     -0.237586      0.439105
Pb       3.88579      3.86852     16.55018         0.301699     -0.007502      0.149064
Pb       3.91180     15.51947      4.06941        -0.156488     -0.010919      0.785680
Pb       3.95827     15.57752     16.52958         0.043458      0.319166      0.562850
Pb       0.02311      3.92970      4.09443         0.285683     -0.299697      0.499245
Pb       0.03146      3.85386     16.60771        -0.833772      0.088813     -0.018499
Pb       0.00928     15.50835      4.13017         0.091790      0.096584      0.429061
Pb      15.60096     15.60708     16.54105        -0.132101     -0.164325      0.693221
Pb       3.96697      3.86415      8.19007        -0.922904     -0.061795      0.516173
Pb       3.86910     15.43520      8.16119        -0.267929      0.855199      0.414244
Pb      15.55478      3.90450      8.26806         0.185983     -0.481709      0.265950
Pb      15.49916     15.51545      8.29759         0.620189      0.619030     -0.483000
Pb       3.83832      3.80440     12.44840         0.053153     -0.105625     -0.319859
Pb       3.93638      0.05858     12.54226        -0.013916      0.100742     -0.415691
Pb       0.02315      4.04639     12.55571        -0.268679     -0.107189     -0.363478
Pb       0.07072     15.56451     12.49343        -0.504874      0.276629     -0.659946
Pb       3.93639      7.78862      3.96958        -0.340916      0.265385      0.854733
Pb       3.91431      7.80866     16.55834        -0.145615      0.108215      0.259718
Pb      15.44395      7.77698      4.09238         0.444164      0.145823      0.177362
Pb      15.59429      7.71611     16.54811        -0.484776      0.770444      0.485794
Pb       3.74736      7.77138      8.30230         0.713814      0.043233     -0.083444
Pb      15.49615      7.70319      8.37079        -0.364553      0.243215      0.076362
Pb       3.90521      7.73756     12.34806        -0.341885     -0.012811      0.474404
Pb      15.54380      7.76702     12.39999         0.057018     -0.060984      0.469319
Pb       3.87794     11.68632      4.08196         0.241809     -0.130211      0.750223
Pb       3.83183     11.74783      0.04090        -0.023391     -0.294531     -0.338210
Pb      15.56386     11.61930      4.07260         0.066728      0.093726      0.046104
Pb      15.57966     11.61840     16.53617        -0.232728     -0.036285      0.116884
Pb       3.89190     11.75969      8.39648        -0.106115     -0.690680     -0.210906
Pb       0.07132     11.72799      8.25813        -0.070043     -0.077390      0.292741
Pb       3.80969     11.64051     12.41818         0.226718      0.095880      0.281624
Pb      15.55380     11.79998     12.51269         0.218040     -0.137713     -0.396679
Pb       7.80354      3.87273      4.08848         0.593331     -0.481106      0.282399
Pb       7.82473      3.87969     16.56919         0.062136      0.216652      0.887895
Pb       7.82186      0.00642      4.18426        -0.014976     -0.086399     -0.312268
Pb       7.77263      0.00814     16.52856         0.498175      0.466697      0.844783
Pb       7.86243      3.78572      8.26685        -0.031637      0.872066      0.627631
Pb       7.74921      0.02822      8.13613         0.101652     -0.269984      0.763160
Pb       7.86460      3.82618     12.47948        -0.156037     -0.055791     -0.106086
Pb       7.75389     15.57652     12.32361        -0.336967     -0.032162      0.828939
Pb       7.92391      7.78169      4.15022        -0.595926      0.459384      0.564201
Pb       7.63293      7.62320      0.01366         0.225628      0.212338     -0.034390
Pb       7.76818      7.72855      8.20816        -0.107770     -0.194152      0.137428
Pb       7.64871      7.88451     12.42926         0.519203     -0.148487      1.072495
Pb       7.80694     11.66782      4.10248         0.003436      0.224637      0.569546
Pb       7.76705     11.78369     16.56599         0.203638     -0.330096      0.410101
Pb       7.94382     11.68961      8.36362        -0.814576      0.050099     -0.204059
Pb       7.79016     11.79866     12.42163        -0.354494     -0.480032      0.276972
Pb      11.71448      3.79349      4.09002        -0.058798      0.257618     -0.095308
Pb      11.65191      3.87593      0.09669         0.079892     -0.174859     -0.075719
Pb      11.70822     15.50864      4.09533        -0.009720      0.360094     -0.125245
Pb      11.71500     15.59628     16.50555        -0.719001      0.061581      0.617167
Pb      11.69463      3.92075      8.32454        -0.014849      0.056011     -0.008312
Pb      11.80363      0.04260      8.36050        -0.157892     -0.126321      0.026812
Pb      11.66596      3.90459     12.33694        -0.081035      0.089668      0.890650
Pb      11.47684      0.09448     12.42180         1.309822     -0.496339      0.923123
Pb      11.70529      8.00224      4.25313         0.289337     -0.184270     -0.315847
Pb      11.76748      7.77237     16.58594        -0.411508      0.300591      0.030285
Pb      11.70875      7.67002      8.38305         0.109157      0.613355     -0.085441
Pb      11.68969      7.90160     12.43842        -0.299757     -0.004578      1.358165
Pb      11.84410     11.71258      4.10112        -0.346151     -0.183794     -0.162883
Pb      11.52376     11.61161     16.58345         0.282054      0.303998      0.208238
Pb      11.63281     11.76021      8.42285         0.433244     -0.192312     -0.159599
Pb      11.66419     11.63332     12.48376        -0.277512      0.088707      0.247285
Ti       1.95144      1.78492      2.20697        -0.274641      0.545802      1.741633
Ti       1.90044      1.92280     14.69570         0.715040     -0.217313      0.294150
Ti       1.93857     13.55124      2.17247        -0.253790      0.685107      0.486563
Ti       1.91955     13.68110     14.74245         0.188757     -0.696109      0.413652
Ti      13.74080      1.91032      2.21073        -0.836807      0.016969     -0.255950
Ti      13.66344      1.91852     14.71742        -0.394990      1.210470      0.645535
Ti      13.64413     13.70276      2.12033         0.200782     -0.739952      1.460767
Ti      13.63861     13.68836     14.64282        -0.395949     -0.724488      0.433048
Ti       1.91909      2.01998      6.34521        -0.186784     -1.018711      0.331255
Ti       1.97128     13.58533      6.36649        -0.316582      0.995457      0.333005
Ti      13.61833      1.98415      6.39087         1.059740     -0.765429     -0.817957
Ti      13.56343     13.63782      6.40499         0.808480      0.152328     -0.063059
Ti       1.83157      1.97476     10.42864         0.482275     -0.272289     -0.535991
Ti       1.94654     13.69970     10.52813        -0.223692     -0.519213     -0.468444
Ti      13.64321      1.95355     10.59402         0.748404     -0.430994     -0.133143
Ti      13.57932     13.67267     10.58125        -0.073058      0.777098      1.249572
Ti       1.98561      5.79245      2.17950        -1.091716      0.426582      0.577619
Ti       1.82356      5.83685     14.84599         0.335197      0.989680     -1.368418
Ti      13.66605      5.76114      2.22378        -0.170540      1.452429     -1.031172
Ti      13.53320      5.85462     14.77429         0.581670     -0.051071     -0.555341
Ti       1.80199      5.90342      6.42483         0.917684     -0.940396     -0.745584
Ti      13.54313      5.81528      6.41391         0.309166      0.806707     -0.474838
Ti       2.00063      5.86170     10.44550        -1.161337     -0.465275      0.910148
Ti      13.54351      5.85867     10.68923         1.039256      0.278116     -1.367103
Ti       1.95573      9.72742      2.13406        -0.124446     -0.941197      1.651579
Ti       1.93202      9.75012     14.62965        -0.259271     -0.374281      0.728423
Ti      13.71048      9.73671      2.12733        -0.822851     -0.313518     -1.221488
Ti      13.56924      9.86441     14.65369         0.206242     -1.326512      0.892423
Ti       1.91358      9.71214      6.47743         0.363425      0.078249     -0.799398
Ti      13.61781      9.79265      6.44710         0.127342     -0.475221      0.149575
Ti       1.89000      9.76842     10.57470        -0.238134      0.500906     -0.602625
Ti      13.59634      9.83370     10.57116         0.087308     -0.371268      0.321583
Ti       5.81486      1.87306      2.27262         0.873160     -0.021222     -0.494999
Ti       5.88372      1.98800     14.72575        -0.478070     -0.716785     -0.659538
Ti       5.86780     13.65672      2.20706         0.721786     -0.069960      0.377395
Ti       5.82596     13.62735     14.75883         0.330000      0.264935     -0.962405
Ti       5.86467      2.00359      6.39907        -0.947154     -1.802436     -0.990042
Ti       5.85165     13.58460      6.40117         0.179033     -0.203567     -0.606201
Ti       5.79141      1.83131     10.47001         0.020679      0.996006      0.918483
Ti       5.76124     13.59392     10.49758        -0.311600      0.053288     -0.737121
Ti       5.87471      5.74325      2.38649         0.319356      0.436244     -1.923324
Ti       5.72166      5.79109     14.61447         0.641323      1.236592      0.742261
Ti       5.76300      5.78216      6.33179         0.057707      1.182246      1.144536
Ti       5.91299      5.70776     10.54539        -0.519146     -0.002193      0.886327
Ti       5.82933      9.77965      2.22895         0.742245     -0.591670      0.145377
Ti       5.79124      9.76877     14.76399         0.425126     -0.697338     -0.207111
Ti       5.88685      9.71864      6.52701        -0.847151      0.196858     -1.475546
Ti       5.82678      9.70776     10.56037        -0.235391      0.145818     -0.124813
Ti       9.75107      1.93094      2.25248         0.144806     -0.285120     -0.688651
Ti       9.80320      2.02404     14.72358         0.036679     -0.694360      0.805062
Ti       9.76756     13.60825      2.28940        -0.091082      0.734630     -0.941714
Ti       9.73741     13.66386     14.65449        -0.196555      0.260685      0.559650
Ti       9.77520      2.01980      6.37005         0.545967     -0.548447     -1.367736
Ti       9.76543     13.70698      6.44579        -0.295860     -0.369206     -0.045518
Ti       9.71589      1.91411     10.54343        -0.737999      0.462632      0.461488
Ti       9.70117     13.63438     10.57483         0.793235      0.302472      0.201953
Ti       9.77686      5.87570      2.30475         0.540583     -0.405223     -0.833413
Ti       9.71242      5.83955     14.68288         0.138067      0.798995      0.002331
Ti       9.71785      5.86720      6.34124        -0.127843      0.023276     -1.032079
Ti       9.66804      5.89991     10.60364        -0.071927     -0.797291      0.468971
Ti       9.69356      9.74387      2.24373         1.082783      0.115955     -0.555666
Ti       9.64623      9.71670     14.74082         0.344400     -0.785531     -0.356414
Ti       9.79157      9.79313      6.48352        -0.333695     -0.915223      0.080609
Ti       9.69535      9.67581     10.52007         0.526152      0.671735      1.145957
O       1.96337      1.87611      0.48393        -0.119307      0.253678     -0.982440
O       1.92538      1.84297     12.94498         0.022733     -0.143084     -0.149176
O       2.03475     13.52721      0.41419        -0.111147      0.266882     -0.079054
O       1.84867     13.73453     12.98812         0.258425     -0.068867     -0.515944
O      13.68231      1.92092      0.43739         0.461946      0.255958     -0.166540
O      13.68207      1.85274     13.00674        -0.034178      0.099629     -1.511394
O      13.59024     13.60831      0.42486        -0.000369      0.175474     -1.250172
O      13.75330     13.66736     12.89869         0.179589      0.098453     -0.190143
O       1.99990      1.97077      4.54837        -0.134926     -0.375018      0.416558
O       2.05875     13.70155      4.62831        -0.436134     -0.417978     -0.868477
O      13.70266      1.94768      4.60548        -0.670315      0.092054      0.085798
O      13.59917     13.63775      4.62635         0.052054     -0.027478      0.034544
O       1.82714      2.02775      8.62131         0.121196      0.004800      1.459424
O       2.00137     13.34672      8.73252        -0.068783      0.963278      0.392581
O      13.63175      1.99788      8.78574        -0.145119     -0.052551      0.424167
O      13.44394     13.71685      8.83494         0.329689     -0.012404     -1.091751
O       1.81142      5.75790      0.40815         0.310731     -0.352117     -0.223505
O       1.75551      6.00594     13.06780         0.431509     -0.761296     -0.547994
O      13.86779      5.96165      0.40318        -0.861372     -0.678320      0.903803
O      13.56829      5.78993     12.99004        -0.024396      0.094961     -0.926947
O       1.91978      5.92262      4.65907        -0.267115      0.014991     -0.322430
O      13.56745      5.81791      4.62837        -0.028161      0.196907      0.081036
O       1.87851      5.86047      8.68946         0.038709     -0.425824      0.546552
O      13.51847      6.04530      8.80414         0.150348     -0.743676      0.564606
O       1.98362      9.77815      0.43961        -0.107752      0.211342     -1.224723
O       2.09339      9.73934     12.86938        -0.398375     -0.111213     -0.248960
O      13.83799      9.67749      0.30842        -0.680867      0.484438      0.975898
O      13.44502      9.79696     12.90853         0.484207      0.367147     -1.131518
O       1.91255      9.58406      4.69677         0.149474      0.255347     -0.070417
O      13.63613      9.77498      4.64258         0.174957      0.227941      0.179513
O       1.86629      9.83098      8.77676        -0.076816      0.005900      0.526988
O      13.46481      9.73596      8.82221         0.481429     -0.089196     -0.404094
O       5.88577      1.87968      0.49184        -0.240355      0.517660     -0.525990
O       5.80632      1.77861     12.94565         0.117511      0.329390      0.437407
O       5.80298     13.59869      0.42530         0.279847      0.070267      0.022072
O       5.93014     13.66766     12.96337        -0.133692     -0.178750     -0.000556
O       5.85567      1.91007      4.60170         0.137625     -0.157882      0.716134
O       6.07405     13.65655      4.60233        -0.787137     -0.141503      0.420605
O       5.85343      1.94908      8.71832         0.024876     -0.062367     -0.315786
O       5.55087     13.51895      8.69013         0.811764      0.438893      1.201504
O       6.00631      5.58326      0.55868        -0.545489      0.587262      1.087357
O       5.61012      5.87335     12.88029         0.341814     -0.048975     -0.447563
O       5.72587      5.77272      4.59375         0.259200     -0.121695     -0.966861
O       5.81412      5.76800      8.80651         0.280147     -0.146243     -0.361891
O       5.83580      9.69698      0.48219         0.041807      0.158712     -0.415367
O       5.85360      9.79203     13.00351        -0.452917     -0.362907     -1.153209
O       5.91353      9.68772      4.70872        -0.235813      0.176798      0.369384
O       5.95289      9.60481      8.82507        -0.257269      0.318341     -0.354290
O       9.66972      1.93643      0.47148         0.539201     -0.212517     -0.489813
O       9.75562      2.02380     12.96782        -0.060719      0.169438     -0.744904
O       9.83969     13.65896      0.51989        -0.226787     -0.252115     -0.603718
O       9.56142     13.62490     12.91290        -0.011387     -0.112925     -1.027101
O       9.83500      1.98821      4.53805         0.096581      0.317402      1.132314
O       9.84348     13.51142      4.71775        -0.237978      0.317534     -0.816916
O       9.56470      1.83598      8.80984         0.591300      0.299527     -1.016588
O       9.90198     13.72398      8.84525        -0.428925     -0.041048     -1.110606
O       9.67710      6.12651      0.52842        -0.166769     -0.464753      0.093826
O       9.77959      5.72428     12.92131         0.112789     -0.054584     -0.166103
O       9.85221      5.70336      4.53078        -0.102962      0.245710      0.788509
O       9.46766      5.83111      8.87646         0.642741      0.242760     -0.671108
O       9.72120      9.70473      0.44851         0.157763      0.100649      0.359389
O       9.86552      9.80653     12.98621        -0.602383      0.189965     -0.760882
O       9.74635      9.80964      4.73877         0.106271      0.038933     -1.198349
O       9.70075      9.53718      8.78469        -0.069841      0.623971     -0.333640
O       3.91558      1.82962      2.52110        -0.642560      0.386437      0.016586
O       3.93306      1.87230     15.00698        -0.180849      0.344778      0.207114
O       3.98501     13.56779      2.57652        -0.372087      0.145688     -0.169365
O       3.89157     13.65220     15.01716         0.204215     -0.305883     -0.125975
O       0.02840      1.75327      2.64251         0.213166      0.747130     -0.641089
O       0.02325      1.87172     15.04837        -0.037043     -0.129185     -0.003146
O       0.03989     13.66159      2.53348        -0.293242     -0.438981     -0.172549
O       0.00500     13.58990     15.07922        -0.215238      0.655868     -0.269039
O       3.87318      1.98598      6.61969         0.233004     -0.070168      0.260464
O       3.92228     13.69968      6.57554        -0.679644     -0.362481      0.210122
O      15.54426      1.92809      6.62560        -0.159530      0.085785      0.387917
O      15.55255     13.72218      6.72706        -0.241502     -0.696284     -0.017088
O       3.82696      1.94132     10.94048         0.581301     -0.272391     -0.481851
O       3.86277     13.64453     10.87656         0.081010      0.069355      0.344372
O      15.58544      1.94873     10.87596        -0.035111     -0.009019     -0.024691
O       0.06947     13.59512     10.88173        -1.204481      0.149871     -0.183627
O       3.83527      5.72367      2.50844         1.020011     -0.081041     -0.055772
O       3.89210      5.90646     15.12799        -0.693148     -0.837046     -0.065666
O       0.00083      5.90420      2.60098         0.272562     -0.052598      0.016326
O      15.50100      5.94570     15.05100         1.010397     -0.731810     -0.268303
O       3.82611      5.78455      6.67447         0.405656     -0.104147      0.259693
O      15.50260      5.73449      6.75013        -0.437893      0.698497     -0.134534
O       3.82738      5.74125     10.86638         0.186218      0.545878     -0.280370
O      15.47583      5.91342     10.80421         1.248800     -0.223625      0.407249
O       3.96213      9.82242      2.52946        -0.606197     -0.170348      0.141187
O       3.86290      9.77023     15.06088         0.332592     -0.260286      0.032050
O       0.00387      9.70621      2.49891         0.739011      0.117288      0.355869
O       0.02042      9.79256     14.87197        -0.030787     -0.043630     -0.053983
O       3.85411      9.61227      6.86314         0.005414      0.137202     -0.269807
O      15.59100      9.82545      6.76704        -0.909261     -0.037398      0.023470
O       3.84792      9.78885     10.75736         0.671218     -0.409634      0.308985
O      15.52147      9.78749     10.83698         0.114847     -0.051680      0.330661
O       7.88654      1.83990      2.59362        -1.057274      0.264993      0.237073
O       7.77685      2.01087     15.12760         0.014356     -0.094462     -0.937051
O       7.85651     13.72813      2.63169        -0.360408     -0.351631     -0.478144
O       7.83174     13.74662     15.16075        -0.389093     -0.810960     -0.504290
O       7.85031      2.09073      6.66195        -0.590841     -0.672142     -0.185328
O       7.73115     13.52215      6.82716         1.015704      0.268431      0.222890
O       7.76899      1.85983     10.93263        -0.098407      0.271796     -0.362087
O       7.70623     13.70160     10.67703         0.622262     -0.450028      0.279649
O       7.83167      5.85767      2.71187        -0.686098     -0.089425     -0.219334
O       7.80172      5.71524     14.98020        -0.170297      0.710586     -0.214647
O       7.84709      5.75275      6.66659        -1.298391     -0.081611     -0.277412
O       7.77204      5.78187     11.08439        -0.215682      0.313359     -0.530638
O       7.84614      9.71995      2.50008        -0.343995     -0.251069      0.466542
O       7.72677      9.55133     14.95096         0.791320      0.490530      0.383847
O       7.77228      9.73768      6.78739         0.023552      0.151524      0.211945
O       7.78009      9.77748     10.97720         0.324101      0.152767     -0.410155
O      11.77605      2.06840      2.44830         0.040928     -0.379883      0.392254
O      11.74148      2.05538     15.07718        -0.422172     -0.529538     -0.073539
O      11.72575     13.60435      2.55023         0.701946      0.116253      0.299215
O      11.62793     13.67318     14.83623         0.681320     -0.183584      0.432761
O      11.69257      1.95663      6.72775        -0.847478     -0.031279      0.215146
O      11.64776     13.71664      6.72251        -0.012595     -0.013202      0.246688
O      11.68844      1.89032     10.84501        -0.140115      0.507286     -0.143781
O      11.68666     13.82475     11.00892        -0.249407     -0.734159     -0.323712
O      11.70077      5.74789      2.33750         0.864692     -0.094485      0.475195
O      11.69829      5.80739     15.16908        -0.283910     -0.214036      0.029910
O      11.58110      5.91446      6.81123         1.159578     -0.402695      0.075865
O      11.62227      5.77185     10.75048        -0.294104      0.005843      0.351081
O      11.76850      9.77383      2.50623        -0.315201      0.227937      0.135553
O      11.67763      9.90818     15.00937        -0.026636     -0.193045      0.401676
O      11.65114      9.73690      6.75797         0.802364     -0.099153     -0.030057
O      11.69852      9.78797     10.93663        -1.091841     -0.299395     -0.461751
O       1.87109      3.82318      2.60987         0.246639      0.344488     -0.737370
O       1.94524      3.82666     14.96358        -0.069991      0.610876      0.339362
O       1.89912     15.45453      2.58834         0.856565      0.914968     -0.396272
O       2.00045     15.60226     15.15169        -0.399941     -0.496236     -0.546186
O      13.81890      3.89840      2.52044        -0.165647     -0.138841     -0.255370
O      13.74615      3.88156     14.95610         0.097691     -0.046387      0.587107
O      13.69638      0.01249      2.39651        -0.469268     -0.837250      0.602002
O      13.59080     15.57814     15.10924         0.615465     -0.189918     -0.426846
O       1.79770      3.88380      6.70427         0.418571      0.335021     -0.196347
O       1.90987     15.56259      6.81341        -0.070305      0.104629     -0.366207
O      13.53472      3.92440      6.69937        -0.216515     -0.060448      0.378556
O      13.55086      0.01271      6.71636         0.144636     -0.166326      0.275169
O       1.94697      3.84701     10.93102        -0.514855      1.054474     -0.286323
O       1.85971     15.59016     10.70401         0.217124      0.231837      0.180727
O      13.75114      3.92270     11.01904        -0.879786     -0.554757     -0.537927
O      13.67186     15.60646     10.89267         0.254739      0.563841     -0.187465
O       2.08269      7.79071      2.33184        -0.156430     -0.228038      0.470244
O       1.93494      7.74382     15.08732         0.290261      0.902481      0.077626
O      13.60939      7.82620      2.46497         0.228451     -0.419143      0.660758
O      13.51042      7.88111     14.86145         0.261970     -0.652029      0.461925
O       1.78894      7.74209      6.88437         0.178738      0.549415     -0.302662
O      13.64669      7.83126      6.67679        -0.100692     -0.186590      0.199017
O       1.85782      7.80119     10.78767         0.426724     -0.371759      0.008839
O      13.53230      7.75554     11.06258         0.356825      0.628190     -0.828039
O       2.00868     11.67585      2.52757        -0.259409     -0.309102      0.322413
O       1.95522     11.65148     15.09655         0.167069      0.604993     -0.683742
O      13.78123     11.68750      2.46847        -0.298195      0.112202      0.273633
O      13.65642     11.75624     14.97126         0.051759      0.326277      0.084705
O       1.95160     11.69169      6.60782        -0.076367     -0.275044      0.173526
O      13.50966     11.73739      6.79261         0.280059     -0.087705     -0.188741
O       1.90501     11.71937     10.99309         0.182586     -0.436070     -0.094004
O      13.51688     11.77188     10.88586         0.431670     -0.589356     -0.129508
O       5.89152      3.75789      2.70812        -0.180315      1.168037     -0.447332
O       5.76929      3.95122     14.88437        -0.061962     -1.738703      0.412273
O       5.85569      0.00279      2.52402         0.102993     -1.214252      0.218645
O       5.85722     15.54156     15.03692        -0.035703      0.647413      0.089252
O       5.78331      3.80417      6.74094         0.431975      1.600963     -0.292862
O       5.79758     15.54488      6.78524         0.672554      0.792946     -0.492782
O       5.88743      3.82494     10.89168        -0.295687     -0.027500      0.037618
O       5.81649     15.58450     10.77927        -0.277778     -0.442591      0.110938
O       5.86351      7.73117      2.53067        -0.122061     -0.158067     -0.019351
O       5.81028      7.74075     15.09202        -0.100039     -0.174494     -0.246670
O       5.78322      7.66744      6.72699         0.378116      0.139538      0.034844
O       5.90132      7.74055     10.92438        -0.613684      0.441712     -0.347710
O       5.97287     11.68464      2.50419        -0.155242      0.211882      0.164250
O       5.94526     11.65480     15.02711        -0.153101      0.754970      0.182209
O       5.71302     11.67418      6.75959         0.366353     -0.655247     -0.168795
O       5.77282     11.68561     10.86424         0.329556      0.000101     -0.056468
O       9.69966      3.88553      2.33383         0.018447      0.559486      0.785355
O       9.83187      3.92037     15.10845        -0.317995      0.037042      0.096716
O       9.84193     15.57848      2.53691         0.304021     -0.098760      0.692012
O       9.77418      0.07363     14.88202        -0.052614     -0.473987      0.484368
O       9.82117      3.92799      6.77341        -0.013098     -0.763182      0.066788
O       9.56618      0.00774      6.55031         0.349673      0.243976      0.355418
O       9.66932      3.85923     10.84081         0.159031     -0.229224      0.033080
O       9.76272     15.59756     10.93965        -0.709691      0.183755     -0.247768
O       9.86606      7.83309      2.82752        -0.493420      0.091581     -0.847615
O       9.92864      7.79437     14.87280        -0.502480     -0.486640      0.416711
O       9.70100      7.78601      6.60720        -0.190391     -0.511821      0.183545
O       9.71674      7.82951     10.93059        -0.152466     -0.458295     -0.133781
O       9.77806     11.70366      2.58771        -0.153514     -0.794967     -0.110664
O       9.63963     11.67177     15.01444        -0.112672      0.812071      0.269386
O       9.75049     11.65727      6.85226        -0.099683      0.991576      0.394649
O       9.86559     11.73075     10.75710        -0.798732     -0.320828      0.092410
