  # total energy = -7878.39531829 
CRSYTAL
PRIMVEC
    15.6080000000000005    0.0000000000000000    0.0000000000000000
     0.0000000000000000   15.6080000000000005    0.0000000000000000
     0.0000000000000000    0.0000000000000000   16.6239999999999988
PRESSURE
-0.220447 -0.740666 -0.383098 -0.109401 -0.302301 0.067886
PRIMCOORD
320 1
Pb       4.01283      4.00109      4.16340        -0.123766     -0.690960     -0.337870
Pb       4.08603      4.10553      0.14677        -0.409817     -1.032127      0.025870
Pb       3.86800      0.03520      4.01427         0.441124     -0.204322      0.124922
Pb       3.76855     15.57365     16.62024        -0.038217      0.107496     -0.297250
Pb       0.09775      3.83558      4.16927        -0.318991      0.044236     -0.464696
Pb      15.45722      3.81295     16.62399         0.758273      0.333168     -0.243722
Pb      15.54216     15.56081      4.00399         0.185415      0.228791     -0.160928
Pb      15.46933     15.55718     16.57069         1.296523      0.344665      0.274598
Pb       3.64947      3.78332      8.35179         0.617129     -0.115221     -0.172286
Pb       3.89145      0.07980      8.31445        -0.138879     -0.117316     -0.420761
Pb      15.55106      3.78181      8.27992         0.002021      0.282755      0.012429
Pb       0.15130     15.57919      8.20076        -0.364330     -0.099820      0.290303
Pb       3.92159      3.94835     12.36712        -0.455915     -0.119405      0.480347
Pb       3.83626     15.39508     12.27192         0.245198      0.690036      0.573976
Pb      15.58647      3.75449     12.42488         0.131374      0.920987      0.532206
Pb      15.54566      0.31786     12.59468         0.286972     -0.587723      0.071999
Pb       3.80128      7.85646      4.34556         0.254850     -0.153301     -0.992708
Pb       3.81025      7.73888      0.01278        -0.080359      0.139355     -0.180741
Pb       0.25975      7.91377      4.24990        -0.746254     -0.700506     -0.293970
Pb       0.03497      7.73266      0.02650         0.092011     -0.019400     -0.595462
Pb       4.09386      7.68151      8.07865        -0.714482     -0.061452      0.898687
Pb      15.40625      7.75198      8.57490         0.052021      0.240669     -0.270901
Pb       3.92246      7.89925     12.44211        -0.248778     -0.477295     -0.271117
Pb      15.60269      7.98474     12.61048        -0.272991     -1.121162     -0.537911
Pb       3.82850     11.66921      4.08385         0.474466      0.109111     -0.238855
Pb       3.93102     11.60001     16.43870        -0.578008      0.337262      0.382159
Pb      15.59270     11.65956      4.06775        -0.358405      0.274748     -0.104755
Pb      15.53575     11.83890     16.55771         0.303063     -0.374980      0.120352
Pb       3.83152     11.62213      8.04810        -0.040570      0.407266      0.667594
Pb      15.56520     11.61309      8.34185         0.155933      0.199556     -0.493619
Pb       4.06606     11.69272     12.29201        -0.519729     -0.344463      0.391597
Pb       0.21120     11.51204     12.28872        -0.363742      0.393583      0.497998
Pb       7.87033      3.73396      4.20641        -0.183940      0.117981     -0.530528
Pb       7.85666      4.01135      0.13016         0.201021     -0.279776     -0.638648
Pb       7.78723     15.42121      3.98600        -0.338557      0.631757     -0.151357
Pb       7.92150      0.18207      0.12276        -0.731471     -0.120891     -0.573015
Pb       7.56274      3.98993      8.34789         0.404202     -0.236846     -0.447858
Pb       7.87315     15.50506      8.35560         0.238287      0.160915     -0.347885
Pb       7.63978      3.78749     12.40100         0.666823     -0.134949      0.426449
Pb       7.64499     15.56405     12.57245         0.394637      0.094419     -0.473426
Pb       7.68833      7.86787      4.16143         0.354869     -0.263304      0.067335
Pb       7.85786      8.04371     16.59320        -0.061252     -1.068480     -0.201972
Pb       7.81222      7.76834      8.26716        -0.347903     -0.366264     -0.484487
Pb       7.85075      7.55199     12.32834         0.220654      0.283532      0.033569
Pb       8.01722     11.68417      4.34966        -0.865237     -0.226039     -0.768357
Pb       7.64802     11.67166      0.03577         0.387154      0.319113     -0.378845
Pb       7.59182     11.74240      8.07533         0.733231     -0.131798      0.439403
Pb       7.66631     11.46156     12.40539         0.457140      0.694635     -0.008993
Pb      11.77864      3.94531      4.38137         0.244126     -0.626056     -0.909754
Pb      11.84335      4.09748      0.12793        -1.027396     -0.270339     -0.250858
Pb      11.48879     15.47154      4.17445         0.595086      0.749940     -0.278798
Pb      11.55259     15.51655      0.11234         0.076065      0.198543     -0.583604
Pb      11.78041      4.10900      8.40510        -0.306512     -0.589373     -0.834793
Pb      11.62316      0.12623      8.24691         0.226677     -0.057840     -0.245819
Pb      11.86754      3.81454     12.63103        -0.282083      0.305524     -0.043838
Pb      11.91659     15.52390     12.41549        -1.009677      0.343176     -0.073707
Pb      11.72635      7.41888      4.00341         0.060577      1.372153      0.552702
Pb      11.35277      7.77506      0.02728         0.792854     -0.036150     -0.233299
Pb      11.51515      7.97419      8.21367         0.809734     -0.714488      0.187313
Pb      11.51508      7.88162     12.68819         0.318968     -0.054680     -0.762607
Pb      11.59111     11.26629      4.28857         0.473846      1.029013     -0.835646
Pb      11.81667     11.80499     16.50604        -0.382067     -0.617090      0.489983
Pb      12.08253     11.97649      8.42044        -0.949401     -0.352872     -0.368459
Pb      11.62563     11.89201     12.40638        -0.120406     -0.385715      0.195343
Ti       1.94519      1.85110      2.19009        -0.530310      1.001362     -1.200711
Ti       2.02155      1.99810     14.68813        -0.678559     -0.000089      0.622629
Ti       1.93080     13.57623      2.19292        -0.183892      0.335291     -0.525258
Ti       1.98776     13.67725     14.41752        -0.298131     -0.022822      2.876175
Ti      13.57658      1.93184      2.21880         0.107911      0.731432      1.164867
Ti      13.61117      1.91261     14.83422        -0.119406      1.202863     -0.471229
Ti      13.55692     13.61844      2.33267         0.328796     -0.639343     -0.581219
Ti      13.70331     13.68972     14.58904        -0.384617     -1.133820      0.751390
Ti       1.94267      1.91878      6.34316         0.285308     -0.317036     -0.548202
Ti       1.92679     13.55933      6.19988        -0.159235      1.479424      0.469731
Ti      13.69072      1.88863      6.28471        -1.233509     -0.085733      0.359016
Ti      13.74771     13.64511      6.21542        -0.688514      0.356361      1.296714
Ti       1.93156      1.91762     10.60918        -0.311445      0.063207     -1.450786
Ti       1.92058     13.62397     10.41503         0.274094     -0.436792     -1.133878
Ti      13.59889      1.98167     10.46703         0.237139     -0.020824      0.278871
Ti      13.80924     13.68817     10.47795        -1.057267      0.199350      0.031308
Ti       2.00223      5.77651      2.26481        -0.072472     -0.022289     -0.928722
Ti       1.92480      5.78704     14.67195        -0.881881     -0.215365     -0.994620
Ti      13.79804      5.87002      2.12737        -1.160075     -0.958432      0.404156
Ti      13.57469      5.91589     14.67914         0.565724     -0.763091     -0.251904
Ti       1.81258      5.83823      6.39786         0.242428     -0.040058     -0.631056
Ti      13.61730      5.92471      6.31245         0.276096     -1.121350     -0.074907
Ti       1.86385      5.80517     10.52151         0.491130      0.437304      0.944038
Ti      13.68522      5.86018     10.55359        -0.091580      0.436101      1.383699
Ti       1.91660      9.73802      2.19787         0.558148     -0.102264     -0.998732
Ti       1.96049      9.72232     14.63376        -0.183501      0.099308     -0.025003
Ti      13.68259      9.69318      2.29154        -1.020307      0.223618     -1.601615
Ti      13.64824      9.70969     14.68856        -0.390718      0.033735     -0.843094
Ti       1.82077      9.67082      6.45964        -0.000528     -0.171111      0.418281
Ti      13.61310      9.70169      6.22818         0.406855      0.159660      1.657130
Ti       1.99560      9.66593     10.38383        -0.269521     -0.271351     -0.248832
Ti      13.49362      9.75470     10.68156         0.576267     -0.654931     -0.010241
Ti       5.82464      1.95356      2.15145         0.121290      0.001493      0.880505
Ti       5.82074      1.95385     14.70014         0.619434     -0.284868     -0.286675
Ti       5.85078     13.53097      2.19017        -0.214434      0.186032     -0.191794
Ti       5.87795     13.68841     14.77726         0.046103      0.152262     -0.403469
Ti       5.89034      1.87570      6.31938        -1.159590      0.261804      0.359799
Ti       5.70573     13.63218      6.27026         0.787291      0.702117     -0.923913
Ti       5.78583      1.90241     10.53252         0.850222      0.306022     -0.841448
Ti       5.84187     13.57986     10.47922         0.985582      0.294587      1.062711
Ti       5.94233      5.88858      2.20975        -0.660903     -0.286046      1.297465
Ti       5.82640      5.79130     14.65684         0.794179     -0.343290      0.569714
Ti       5.75508      5.74339      6.22093         0.682879     -0.205510      0.611658
Ti       5.82973      5.82358     10.50652        -0.450895      0.232700     -0.919260
Ti       5.83144      9.70758      2.29256        -0.302597      0.600298      0.719549
Ti       5.88807      9.60442     14.63966        -0.605283      1.047395     -0.505606
Ti       5.77806      9.65452      6.25845         1.418838      0.429749      0.945909
Ti       5.88213      9.61344     10.33099        -0.350239      0.087970      0.533025
Ti       9.74763      1.99608      2.18017         0.233643      0.491611      0.296697
Ti       9.74984      1.96167     14.64012        -0.699930      0.876216      0.491548
Ti       9.80216     13.52535      2.17600        -0.612461     -0.336656      0.182099
Ti       9.69129     13.64053     14.64702        -0.437696     -0.070377      0.213631
Ti       9.69917      1.99288      6.32548         0.683226     -0.417272      1.401011
Ti       9.81132     13.62360      6.38774         0.344360      0.570844      2.610408
Ti       9.76524      1.93207     10.55294        -0.924057     -0.702802      0.006443
Ti       9.75645     13.67714     10.45226        -0.662972      0.174244     -0.384182
Ti       9.75191      5.85472      2.30258        -0.629187     -1.134230     -1.533447
Ti       9.64644      5.78453     14.62328         0.117610     -0.468521     -0.001790
Ti       9.67434      5.80300      6.37680        -0.254675     -0.619511     -0.111474
Ti       9.86843      5.64063     10.49593        -0.380468      1.205849      1.044947
Ti       9.72424      9.68233      2.18065         0.438552     -0.044503      0.212443
Ti       9.77630      9.86733     14.62889        -0.384688     -0.406664      0.865609
Ti       9.77956      9.80502      6.32742        -1.427299     -0.448904      0.376250
Ti       9.75746      9.75242     10.34668        -0.086847      0.351876      1.183361
O       1.84106      1.81407      0.36742         0.403182      0.146669      0.795638
O       1.82407      1.92357     12.87626         0.185459     -0.165998     -0.612831
O       1.95732     13.56266      0.42075        -0.194968      0.174535     -0.296783
O       1.95892     13.54469     12.70453        -0.087897      0.373853     -0.795426
O      13.65850      2.11038      0.44812        -0.238382     -0.901767     -1.132878
O      13.68905      1.95814     12.97136         0.011305     -0.286362      0.158742
O      13.42906     13.50744      0.53683         0.401410      0.645559     -1.032589
O      13.61167     13.65389     12.85639         0.235588      0.495114     -0.724799
O       1.84152      2.09286      4.53339         0.193667     -0.722964      0.680320
O       1.97008     13.68083      4.40372        -0.303082     -0.364198      0.616581
O      13.59993      1.74427      4.52423         0.431626      0.640347      0.207104
O      13.69312     13.59160      4.45470         0.022156      0.217934      0.048075
O       1.88318      2.01024      8.67779         0.123403     -0.188042      0.792104
O       1.95981     13.70259      8.60356        -0.102143     -0.590796      0.531718
O      13.53707      1.92410      8.72121         0.245448      0.275660     -0.302631
O      13.74066     13.69567      8.64446        -0.338396     -0.598135      0.939217
O       1.95442      6.00670      0.42851        -0.027067     -0.341907      0.807765
O       2.02877      5.82015     12.84632        -0.019659      0.090385      0.726998
O      13.67883      5.76416      0.29824        -0.143835      0.554420      0.735028
O      13.51882      5.71471     12.90447        -0.042498      0.157429     -0.000160
O       1.76366      5.79391      4.53028         0.217480      0.306931      0.453609
O      13.58227      5.75759      4.50982        -0.156664      0.446433      0.603235
O       1.91112      5.58009      8.77516        -0.106412      0.528373     -1.084459
O      13.66757      6.01952      8.77664        -0.188343     -0.673918     -1.135126
O       1.84285      9.71437      0.40193         0.331646     -0.212857      0.067654
O       1.78154      9.53348     12.79814         0.759503      0.541518      0.482636
O      13.51251      9.61006      0.49848         0.550799      0.407435     -0.179314
O      13.51128      9.65144     12.77815         0.677391      0.336348      1.719859
O       1.87924      9.64620      4.64852        -0.015880      0.377032     -0.484567
O      13.63569      9.86116      4.50756         0.316784     -0.418409     -0.824209
O       1.98473      9.76599      8.55969        -0.134543      0.225430      0.603671
O      13.60651      9.73120      8.89373        -0.325342     -0.013010     -0.667142
O       5.86873      2.02689      0.41617        -0.237050     -0.085442     -1.012384
O       5.91258      1.93866     12.87705        -0.755463     -0.143081     -0.062689
O       5.90135     13.49772      0.35097        -0.482618      0.040221      0.963028
O       5.88109     13.52708     12.93929        -0.495170      0.182689     -0.457069
O       5.72027      1.97912      4.54215         0.300923     -0.242062      0.249935
O       5.72140     13.68942      4.46910         0.363724      0.129231      0.497919
O       5.69117      1.97853      8.70054         0.417762     -0.391425      0.767063
O       5.71827     13.53221      8.78298         0.118031      0.164627     -1.718320
O       5.97839      5.78073      0.43862        -0.674233      0.252335     -0.620238
O       5.89943      5.82951     12.88823        -0.506597      0.042304     -0.236167
O       5.72292      5.84658      4.44128         0.120742     -0.402641      0.745183
O       5.92971      6.06191      8.65505        -0.449438     -0.894200      0.921849
O       5.86885      9.66752      0.53932         0.058574      0.171417     -1.342244
O       5.95217      9.67935     12.83852        -0.538746     -0.000625      0.229057
O       5.74137      9.78290      4.53722         0.121330     -0.403764     -1.273512
O       5.84111      9.54430      8.54911        -0.092748      0.298828      0.301863
O       9.64782      2.07808      0.37609         0.371911     -0.808088      0.605646
O       9.66879      2.08565     12.86433         0.353813     -0.610844      0.727852
O       9.73069     13.67699      0.44386         0.401496     -0.267773     -0.766788
O       9.58208     13.64777     12.89037         0.454450     -0.242445     -0.196574
O       9.63350      1.85240      4.57586         0.092379      0.101258     -1.051241
O       9.76431     13.55893      4.66981        -0.434078      0.432278     -2.394368
O       9.78208      1.85713      8.76159        -0.145429      0.072868      0.345315
O       9.76556     13.69059      8.61601        -0.165652     -0.016307      0.930536
O       9.73272      5.81881      0.44950        -0.518660      0.243952      0.750613
O       9.58197      5.65982     12.78859         0.472322      0.708685      0.665155
O       9.82929      5.65086      4.59236        -0.264733      0.413932     -0.367346
O       9.68897      5.65693      8.71872         0.177312      0.499100     -0.327993
O       9.70744      9.62273      0.36600        -0.176150     -0.264171      0.139831
O       9.83625      9.89429     12.87345        -0.592824     -0.296701     -0.680939
O       9.68693      9.73656      4.52117         0.161639      0.232678      0.527926
O       9.85623      9.76809      8.57315        -0.218659     -0.294759      0.016766
O       3.87356      1.93168      2.47420        -0.456522      0.090535     -0.010832
O       3.84214      1.95664     15.01046         0.530746     -0.012245     -0.012562
O       3.85740     13.58353      2.42958         0.625879     -0.078527      0.091039
O       3.82764     13.78953     14.96401        -0.093591     -0.440865     -0.361123
O      15.58097      1.80895      2.45658        -0.601738      0.111295      0.329305
O      15.56211      1.94102     15.03413        -0.697947     -0.115465     -0.023186
O      15.57463     13.66499      2.37697        -0.327236      0.309228      0.506040
O       0.00524     13.55704     14.94747        -0.172024      0.649903     -0.179324
O       3.79991      1.88269      6.67792        -0.403023      0.238363     -0.095070
O       3.84098     13.58365      6.53784        -0.372808     -0.197341      0.263488
O      15.56010      1.95753      6.77127         0.182853     -0.090658     -0.661727
O      15.59506     13.60839      6.59960         0.104540      0.042223     -0.274613
O       3.78385      1.94661     10.73767         1.132271     -0.365843      0.538809
O       3.82167     13.56420     10.75653         1.418751     -0.064914      0.414967
O       0.02093      1.83299     10.83840        -0.988709      0.012836      0.010270
O      15.60663     13.44288     10.60123        -0.110932      0.032735      0.566462
O       3.92142      5.82207      2.42871        -0.901195     -0.271053      0.068867
O       3.88978      5.64173     15.09380         0.345171      1.070082     -0.533938
O      15.55525      5.69139      2.37398         0.910685      0.760400      0.213467
O      15.52459      5.85108     14.88882         0.242107      0.246518      0.308256
O       3.82596      5.90301      6.47935         0.187090      0.091545      0.346999
O      15.54003      5.95620      6.68138        -0.103194      0.099276      0.060649
O       3.88543      5.67482     10.84094        -0.109032      0.648532     -0.321190
O       0.01530      5.84951     10.84216        -0.077196     -0.138937      0.028324
O       3.87887      9.81343      2.49263        -0.844071      0.073291      0.156269
O       3.89471      9.66306     14.92665        -0.898478     -0.042471      0.008168
O      15.58882      9.71758      2.56074         0.167377     -0.582132      0.161359
O       0.00786      9.72456     14.95168        -1.053181     -0.023912     -0.184880
O       3.93012      9.70095      6.55833        -1.186498     -0.102855      0.198357
O      15.52969      9.60874      6.76079        -0.047974      0.309864     -0.433592
O       3.83931      9.64817     10.77257         0.927614      0.191311      0.004334
O      15.55786      9.68326     10.76237         0.150605      0.331545      0.125920
O       7.75017      1.91511      2.48322         0.648816     -0.104292      0.353491
O       7.73830      1.98424     14.97778         1.600821     -0.216990      0.166523
O       7.81770     13.51922      2.53145        -0.111732      0.379445      0.137004
O       7.70880     13.63042     14.98457         0.748668     -0.601107      0.237512
O       7.72424      1.99719      6.56800        -0.220865     -0.537141      0.381980
O       7.66466     13.64369      6.71302         0.389201      0.272447     -0.291263
O       7.73519      1.86653     10.90499        -0.229605      0.216772     -0.675240
O       7.76324     13.63019     10.75304        -0.681096     -0.044507     -0.279675
O       7.73972      5.89951      2.62502         0.264476     -0.031051     -0.087764
O       7.76646      5.77232     15.05064        -0.283606      0.305051     -0.393378
O       7.71034      5.78475      6.59128         0.316509     -0.363983      0.056026
O       7.66963      5.76273     10.76857         0.870512      0.279137     -0.029403
O       7.86737      9.66595      2.56494        -1.612761     -0.359006     -0.016785
O       7.73532      9.82257     14.89538         0.030876     -0.355866      0.508593
O       7.73846      9.78502      6.44278         0.804587     -0.098646      0.682814
O       7.76435      9.59264     10.58590         0.636303      0.318903      0.245378
O      11.64349      1.99799      2.58636        -0.652747     -0.502124     -0.401055
O      11.71940      1.83145     14.98686        -0.678762     -0.256914     -0.016922
O      11.65139     13.43715      2.60587        -0.446907      0.550806      0.017741
O      11.62942     13.50183     14.86568         0.336569      0.945048      0.163391
O      11.65198      1.97419      6.59134         0.684222     -0.100495      0.008935
O      11.73536     13.68704      6.63195         0.134973     -0.498476     -0.075238
O      11.69445      2.02824     10.90459         0.255806     -0.392968     -0.157659
O      11.69546     13.70900     10.81029        -0.270669      0.208885     -0.102343
O      11.62772      5.76835      2.38049         0.842112      0.117123      0.479226
O      11.52982      5.97644     15.05040         1.117810      0.063045     -0.485393
O      11.57017      5.76068      6.67444         1.389041      0.037892      0.202147
O      11.79508      5.58332     10.78548        -1.718074     -0.171553     -0.321886
O      11.64203      9.58760      2.66176         0.450292      0.278031     -0.297769
O      11.63978      9.71073     14.91861         0.798476      0.029705      0.079309
O      11.67010      9.81987      6.47860         0.226752     -0.187210      0.326126
O      11.60913      9.61473     10.88807        -0.289726      0.240171     -0.551763
O       1.78136      3.88221      2.47780         0.866487      0.145686     -0.187527
O       1.81962      3.92989     14.99149         0.172209     -0.572512      0.050204
O       1.96819     15.59505      2.48006         0.003307     -0.514515      0.138259
O       1.85092      0.07484     14.86254         0.004009     -1.635998      0.034463
O      13.52028      3.84332      2.53930         0.548552      0.295913      0.007712
O      13.51033      3.94701     15.03884         0.048158     -0.948460     -0.307276
O      13.43326     15.59336      2.46777         0.268661     -0.645898     -0.042840
O      13.65645     15.55808     15.03987        -0.230866     -0.134638     -0.074666
O       1.90177      3.96003      6.64635        -0.272106     -0.700242     -0.023096
O       1.84820     15.55615      6.60469         0.269136      0.574287     -0.363883
O      13.72737      3.96231      6.53466        -0.490306     -0.547056      0.508312
O      13.64327     15.56750      6.60742         0.325361      0.069490     -0.215229
O       1.85982      3.75931     10.89008         0.139836      0.953698     -0.114660
O       1.89504     15.45379     10.70683         0.157714      1.188704      0.586209
O      13.85420      3.84791     10.80967        -0.585572     -0.433060     -0.256372
O      13.65201      0.02326     10.86367         0.222995     -0.574597     -0.049140
O       1.99598      7.80842      2.62186        -0.461702     -0.312826     -0.021548
O       1.85508      7.74185     14.95901         0.593664      0.475462      0.181695
O      13.66474      7.71711      2.54934         0.076874     -0.022266     -0.040725
O      13.60500      7.81438     14.84386         0.116803      0.676321      0.252774
O       1.91776      7.80725      6.63918         0.128755     -0.563607     -0.005077
O      13.46569      7.80309      6.55734         0.097511      0.366644      0.174345
O       1.89834      7.75665     10.58360         0.218261     -0.120284      0.316580
O      13.59453      7.67503     10.88897         0.089517      1.315103      0.103648
O       1.76847     11.62354      2.52408         0.687547      0.503279      0.057004
O       1.92120     11.65891     14.70987         0.371346      0.134287      0.388079
O      13.74692     11.66116      2.46986        -0.233701     -0.562101      0.371984
O      13.61815     11.73500     14.94704         0.224414     -0.811929      0.122262
O       1.88049     11.73309      6.58742         0.042456     -1.245465      0.070262
O      13.73972     11.62609      6.66582        -0.376311      0.478765      0.128024
O       2.00611     11.60480     10.74968        -0.392112     -0.146068      0.028188
O      13.43368     11.77611     10.88906         0.724142     -0.693296     -0.828724
O       5.81280      3.89046      2.48154         0.075920      0.638222      0.186914
O       5.95037      3.81300     14.94017        -0.947859      1.751575      0.310639
O       5.86970      0.01930      2.36693        -0.218529     -1.310998      0.528790
O       5.94862      0.03159     14.98828        -0.717841     -0.818725      0.143365
O       5.64716      3.84773      6.66394         0.454875      0.588759     -0.268167
O       5.63136     15.56736      6.66385         0.723398      0.065249     -0.071799
O       5.81871      3.87037     10.79188        -0.205061     -0.127830     -0.157411
O       5.75632      0.02316     10.82429        -0.235410     -1.443628     -0.089486
O       5.66659      7.85856      2.72018         0.776212     -0.810928     -0.621677
O       5.68326      7.75958     14.98757         0.624485     -0.531951     -0.085658
O       5.97169      7.69171      6.57677        -0.815660      0.762910     -0.482143
O       5.75251      7.76406     10.86558         0.083383     -0.063141     -0.270459
O       5.84517     11.67038      2.64925         0.039084      0.223241     -0.580170
O       5.67950     11.62366     15.01242         0.704255      0.073671     -0.299555
O       5.81886     11.67248      6.52536        -0.365923      0.133046      0.396950
O       5.88169     11.55045     10.76948        -0.383427      0.441305     -0.211636
O       9.61822      3.87643      2.55830        -0.127086     -0.279109     -0.012407
O       9.91663      3.92758     15.02568        -0.675572     -0.681707     -0.372412
O       9.73644     15.54764      2.34950         0.195890     -0.085494      0.743199
O       9.58815     15.55623     15.06753         0.895610      0.433064     -0.284588
O       9.64269      3.81945      6.71411         0.021267      0.631246     -0.197940
O       9.76325     15.60339      6.76422        -0.582542     -0.114239     -0.586036
O       9.60639      3.83529     10.76111         0.152474     -0.159337     -0.108710
O       9.61062     15.57027     10.81801         0.690141      0.151698     -0.005314
O       9.70380      7.69490      2.52502         0.030013      0.673776      0.226160
O       9.57507      7.81720     14.90233         0.303515      0.138086     -0.084502
O       9.71822      7.73230      6.62202        -0.054749      0.822180      0.165801
O       9.72864      7.68344     10.81641         0.194228      0.358038     -0.309397
O       9.66400     11.52456      2.36661         0.345811      1.478322      0.626002
O       9.64814     11.67476     15.13306         0.010555      0.556627     -0.515075
O       9.66850     11.72713      6.54787        -0.103078     -0.805641      0.150470
O       9.77906     11.72671     10.68011        -0.104532     -1.105106      0.137067
