  # total energy = -7881.31791591 
CRSYTAL
PRIMVEC
    15.6080000000000005    0.0000000000000000    0.0000000000000000
     0.0000000000000000   15.6080000000000005    0.0000000000000000
     0.0000000000000000    0.0000000000000000   16.6239999999999988
PRESSURE
-0.274629 -0.27778 -0.708226 -0.137994 -0.229194 0.040437
PRIMCOORD
320 1
Pb       3.98465      3.97779      4.16784         0.067693     -0.322759     -0.484687
Pb       4.05170      4.08163      0.12047        -0.401465     -0.715655     -0.398125
Pb       3.88387      0.02172      4.03379        -0.155119     -0.102319      0.315924
Pb       3.77919     15.57219     16.61491         0.438239      0.337657     -0.409184
Pb       0.08153      3.84360      4.12691        -0.276269     -0.029432      0.383150
Pb      15.46914      3.83772      0.01178         0.631050     -0.168711     -0.474225
Pb      15.53055     15.58443      4.00029         0.125899     -0.074418      0.663112
Pb      15.49699     15.55709     16.59573        -0.042782      0.030369     -0.382524
Pb       3.69770      3.81950      8.33929         0.499439      0.239015     -0.297087
Pb       3.89190      0.05980      8.33349         0.197217     -0.381329     -0.549745
Pb      15.56120      3.80473      8.26337        -0.057198      0.084062      0.251908
Pb       0.13018     15.57050      8.19645        -0.460505      0.249474      0.479030
Pb       3.92442      3.95233     12.35757        -0.182704     -0.511817      0.678481
Pb       3.84147     15.42301     12.28143         0.198171      0.826469      0.904761
Pb      15.58450      3.75806     12.42858        -0.234883      0.752908      0.099024
Pb      15.53113      0.27004     12.55443         0.478833     -1.025486      0.189410
Pb       3.81492      7.83604      4.32341         0.372824      0.095611     -0.571659
Pb       3.81496      7.74113      0.02099         0.341652      0.043656     -0.414627
Pb       0.22402      7.88612      4.21248        -1.081817     -0.454514      0.028336
Pb       0.02665      7.74271      0.02878        -0.251981     -0.036386     -0.268301
Pb       4.08455      7.70844      8.06804        -0.882577      0.149404      1.120510
Pb      15.44625      7.77222      8.50637        -0.009679     -0.184761     -0.582933
Pb       3.91320      7.87587     12.45332         0.199958     -0.236887     -0.066041
Pb       0.00544      7.92914     12.57958        -0.219883     -0.470119     -0.640223
Pb       3.85347     11.67269      4.08780        -0.243664      0.155825      0.143703
Pb       3.91825     11.59392     16.44254         0.156972      0.379037      0.767977
Pb      15.58942     11.65173      4.08794         0.274864      0.254077      0.158348
Pb      15.55159     11.80021     16.55348         0.042996     -0.016644     -0.015918
Pb       3.82418     11.63401      8.09713         0.329253      0.157201      0.520183
Pb      15.55592     11.62895      8.33361         0.418684      0.150997     -0.032166
Pb       4.04373     11.69670     12.33402        -0.459092     -0.138840     -0.245659
Pb       0.16221     11.53192     12.30632         0.033215      0.842119      0.265826
Pb       7.87508      3.77352      4.19406        -0.808812      0.065640     -0.105808
Pb       7.87330      4.00177      0.10781        -0.696836     -0.461838     -0.140800
Pb       7.81110     15.45899      3.99007        -0.290676      0.335157      0.986742
Pb       7.91077      0.15802      0.08624        -0.346839     -0.486863     -0.032173
Pb       7.60305      3.98758      8.31549         0.482663     -0.850898      0.148107
Pb       7.84865     15.51169      8.35776        -0.437417      0.485342     -0.766625
Pb       7.67283      3.82438     12.39949         0.328692     -0.310032      0.103393
Pb       7.68029     15.56396     12.54516         0.273119      0.149929     -0.606202
Pb       7.71276      7.85977      4.17079         0.096843     -0.298248     -0.531093
Pb       7.88332      8.00155     16.59913        -0.857346     -0.645371      0.164420
Pb       7.79500      7.77291      8.26315         0.276058     -0.167041     -0.056081
Pb       7.87921      7.58374     12.30417        -0.706067      0.756078      1.049231
Pb       7.98251     11.67416      4.31542        -0.464937      0.307745     -0.642204
Pb       7.69341     11.66096      0.04636        -0.039206      0.084473     -0.488346
Pb       7.61321     11.73874      8.09965         0.525668      0.200494      0.705770
Pb       7.69462     11.50097     12.41092         0.252146      0.464986     -0.060399
Pb      11.74785      3.95600      4.31408         0.134953     -0.446565     -0.299913
Pb      11.80851      4.07492      0.08506        -0.244112     -0.430838     -0.323214
Pb      11.48585     15.50826      4.13994         0.973183     -0.051241     -0.151187
Pb      11.56216     15.54004      0.09187         0.726062      0.006763     -0.310847
Pb      11.78214      4.05220      8.34417        -0.340150     -0.400845      0.424516
Pb      11.64350      0.10442      8.23522         0.229095     -0.071305      0.213522
Pb      11.86337      3.82198     12.59154        -0.680141      0.339326     -0.792872
Pb      11.91234     15.53264     12.41678        -1.096027      0.291047      0.283603
Pb      11.71990      7.46644      4.00826        -0.202757      1.046356      0.732363
Pb      11.37542      7.77480      0.00547         1.355276     -0.132768     -0.184925
Pb      11.55198      7.95252      8.18726         0.553672     -0.433953      0.474092
Pb      11.56811      7.84893     12.63399        -0.057744     -0.373539     -0.360816
Pb      11.57187     11.34382      4.25191         0.709093      1.184901      0.109739
Pb      11.79712     11.78141     16.53088        -0.347266      0.006033     -0.007732
Pb      12.04803     11.91689      8.36186        -1.645887     -0.732573      0.700201
Pb      11.64764     11.85088     12.41264        -0.301714     -0.103512     -0.136591
Ti       1.99303      2.05631      2.15116         0.292722     -1.148773      1.124104
Ti       1.95158      2.01385     14.65517         0.813335     -0.276732     -0.010932
Ti       1.95432     13.69443      2.14148         0.018192     -0.145613      0.143909
Ti       2.00837     13.63658     14.58739        -0.756166      0.790289     -0.424471
Ti      13.64274      1.99251      2.32305        -0.485422     -1.524383     -0.195694
Ti      13.56760      1.94918     14.72047         0.419157     -1.145144     -0.056620
Ti      13.60606     13.57951      2.24454        -0.231213      1.317206     -0.166784
Ti      13.66189     13.63434     14.56518        -0.112568      0.635973      0.152311
Ti       1.95375      1.88238      6.27061        -0.106394     -0.436411      0.387767
Ti       1.89602     13.51701      6.41259         0.710458      0.312308     -0.520757
Ti      13.62464      1.92944      6.38485         0.162329      0.083629     -0.757011
Ti      13.69778     13.69408      6.37643         0.140733     -0.074323     -0.291241
Ti       1.90515      1.91766     10.56866         0.884478     -0.345254      0.068058
Ti       1.91888     13.64277     10.43267         0.212818     -0.739573     -0.195506
Ti      13.63043      1.99947     10.46991        -0.883401     -0.040652     -0.466233
Ti      13.71851     13.67603     10.56503         0.208194      0.000523     -1.057564
Ti       1.87791      5.87225      2.21321         0.344024     -0.404620     -0.139636
Ti       1.95892      5.88002     14.52458         0.305785     -0.256292      1.575260
Ti      13.66710      5.81696      2.22689         0.410185      0.190860     -0.121832
Ti      13.70808      5.82247     14.66096        -0.825785      0.860171      0.331163
Ti       1.79176      5.76484      6.45938         0.831264      0.122681     -0.180752
Ti      13.61657      5.84284      6.40618        -0.076322      0.870232      0.094758
Ti       1.76221      5.80399     10.61047        -0.138763      0.589783     -0.973153
Ti      13.48162      6.00442     10.58892         0.272947     -1.013090      0.955830
Ti       1.95330      9.71521      2.14034        -0.068623      0.500764      1.311083
Ti       1.89219      9.82276     14.71427         0.527449     -0.930880     -0.329602
Ti      13.62941      9.69036      2.18903         0.631494     -0.336501     -0.652690
Ti      13.63863      9.68840     14.74768         0.008314     -0.402508      0.525553
Ti       1.87560      9.58011      6.43830         0.503793      0.757536      0.072618
Ti      13.62549      9.77105      6.35587         0.063537     -0.954900     -0.577698
Ti       1.95768      9.65048     10.38901         0.545209      0.487923     -0.030407
Ti      13.57023      9.79691     10.57854        -0.097311     -0.218964     -1.023070
Ti       5.84812      1.87395      2.23008        -0.301613      0.794006      0.132285
Ti       5.82212      1.85387     14.79274        -1.322388      0.145796      0.089355
Ti       5.82034     13.56240      2.23082        -0.146519     -0.000068      0.863221
Ti       5.81437     13.56065     14.59850         0.103815      0.934248     -0.137024
Ti       5.77628      1.90355      6.28145         1.265819     -0.511687     -0.197252
Ti       5.81337     13.61871      6.20035        -0.253829      1.194667      0.978666
Ti       5.82810      1.92698     10.45744        -0.394175     -0.634431      1.070172
Ti       5.87264     13.61132     10.40101        -0.921773     -0.318707     -1.020380
Ti       5.77139      5.89602      2.19155         0.125824     -0.629936      0.084717
Ti       5.84874      5.81983     14.72455        -0.676004      0.201712     -0.764646
Ti       5.82994      5.69677      6.32171        -0.503501      0.508502      0.179720
Ti       5.67802      5.80724     10.45651        -0.039163      0.220489     -0.065524
Ti       5.84663      9.75265      2.27216        -0.074446     -0.369476     -0.384664
Ti       5.85090      9.67124     14.64073        -0.421285     -0.464360      0.021667
Ti       5.91491      9.68377      6.31098        -1.390117     -0.440095     -1.302892
Ti       5.83311      9.64956     10.36806        -0.004808      0.346188      0.345501
Ti       9.77018      1.92585      2.29549        -0.223676     -0.192202     -0.538146
Ti       9.77303      1.91749     14.72272         0.174825     -0.239168     -0.735924
Ti       9.72966     13.53293      2.19091         0.645654      0.498486     -0.070710
Ti       9.68227     13.63978     14.69325         0.260272     -0.177368     -0.499137
Ti       9.66004      2.06297      6.46471        -0.789387     -0.796808     -0.350029
Ti       9.78286     13.66727      6.39773        -0.448958     -0.127838     -1.355593
Ti       9.77433      1.88154     10.56582        -0.240945      0.557423      0.246861
Ti       9.67238     13.70448     10.56971         0.411023     -0.219142      0.277063
Ti       9.62243      5.78337      2.19774        -0.463181      0.628236      0.311966
Ti       9.68431      5.66274     14.77877         0.664984      1.898673     -0.572327
Ti       9.70226      5.78485      6.39630         0.097294      0.634238     -0.382644
Ti       9.64924      5.75762     10.58193         1.397873     -0.447026     -0.509626
Ti       9.85614      9.74093      2.19887        -2.155903     -1.055386     -0.147203
Ti       9.77691      9.78280     14.67778        -0.527000      0.200868     -0.703191
Ti       9.71709      9.78042      6.39536         0.878867     -0.160162      0.128501
Ti       9.74050      9.79282     10.52766        -0.025654     -0.159455     -0.308137
O       1.93629      2.11698      0.41467        -0.373901     -0.361386     -0.837250
O       1.96393      1.83642     12.84047        -0.581188      0.023578     -0.014650
O       2.08159     13.62328      0.35838        -0.411789     -0.111164      0.702227
O       1.86841     13.63416     12.80367         0.213244     -0.273778     -0.146514
O      13.76139      1.91145      0.49536        -0.378278      0.415894     -0.258438
O      13.69796      1.96425     12.86877        -0.389902      0.032382      0.181697
O      13.64949     13.82659      0.42844        -0.172580     -0.862068      0.576450
O      13.62787     13.63613     12.75096         0.093401     -0.398595      0.307926
O       1.93088      1.87670      4.52718         0.003291      0.390490     -0.198400
O       1.79544     13.53858      4.66376         0.024645      0.000183     -0.689648
O      13.65214      1.93172      4.58238        -0.424833      0.336332      1.063147
O      13.85390     13.59756      4.62286        -0.309229     -0.137372     -0.167900
O       1.97547      1.82003      8.77452         0.022109      0.457089      0.090446
O       2.01154     13.50929      8.62477         0.161212      0.674101      0.572019
O      13.56035      1.95014      8.68352         0.203491     -0.181483     -0.104567
O      13.52339     13.65772      8.70616         0.477828      0.317481      0.481059
O       1.81014      5.89123      0.43300         0.102476     -0.303951      0.074817
O       2.06863      5.98009     12.79108        -0.247030     -0.163693     -0.723052
O      13.72106      5.63693      0.41955         0.183565     -0.127944      0.457430
O      13.41559      5.83552     12.91255         0.299531     -0.096058     -0.309209
O       1.92493      5.85645      4.68970        -0.158028     -0.151752     -0.375810
O      13.49914      5.89691      4.63073         0.106735     -0.495744     -0.299618
O       1.57923      5.74614      8.81470         0.344063     -0.091934     -0.035724
O      13.55951      5.92662      8.81939         0.325714      0.103565     -0.512527
O       1.94980      9.67911      0.40314        -0.032047      0.132017     -0.630379
O       1.86895      9.78622     12.88424        -0.208169     -0.216201      0.308974
O      13.49639      9.73022      0.41820         0.509216     -0.000442      0.433423
O      13.71104      9.70091     12.96861        -0.092143      0.118040     -0.474776
O       1.94960      9.60505      4.61054        -0.303288     -0.139184      0.121410
O      13.57182      9.71372      4.51951        -0.072769      0.253826      0.783679
O       1.95641      9.68674      8.60841        -0.209975     -0.296341      0.585680
O      13.56972      9.75491      8.75367         0.387744     -0.097387      0.205705
O       5.82758      1.84904      0.44740         0.248916      0.095184     -0.184790
O       5.75191      1.81835     13.01922         0.745856      0.261149     -0.270719
O       5.63991     13.38377      0.50967         0.478407      0.244557     -1.122463
O       5.73667     13.54496     12.77328         0.801571      0.276645      0.849260
O       5.79649      2.03236      4.49050         0.075089     -0.244580      0.226566
O       5.88360     13.70394      4.44368         0.066647     -0.606249      0.518206
O       5.77851      1.95606      8.73261        -0.183283     -0.057060     -0.954659
O       5.77396     13.55070      8.53262         0.564932     -0.068732      1.061810
O       5.66679      5.89853      0.38170         0.324911     -0.462966     -0.278458
O       5.66105      5.86314     12.88149         0.435482     -0.311980      0.379562
O       5.75458      5.81104      4.54819         0.002688      0.012197     -0.256375
O       5.82134      5.75707      8.65915         0.311767      0.153713      0.151548
O       5.86316      9.78997      0.43179        -0.000035      0.066040      0.015988
O       5.73229      9.64445     12.85602         0.329908      0.362734      0.030352
O       5.83494      9.48878      4.45820         0.024329      0.433658      0.914504
O       5.82996      9.65285      8.57370         0.438482      0.122552     -0.023397
O       9.88016      1.76810      0.51641        -0.767410      0.283758     -0.425401
O       9.75420      2.02648     12.93682        -0.266452     -0.158091      0.708025
O       9.94506     13.62958      0.38960        -0.666232      0.023429      0.525647
O       9.69167     13.54489     12.88384        -0.083658      0.227002      0.375422
O       9.56061      2.09965      4.64794         0.567276     -0.059057      0.004574
O       9.70050     13.54169      4.51281         0.209932     -0.066787      0.917459
O       9.52658      1.73520      8.78806         0.721776     -0.007192     -0.307464
O       9.64988     13.71713      8.77166        -0.006276      0.178359     -0.264774
O       9.61175      5.86771      0.39327         0.731289     -0.169920      0.255929
O       9.65378      5.78183     13.01978         0.214292     -0.252840     -0.935711
O       9.72896      5.69411      4.58704         0.176165     -0.032348     -0.145809
O       9.58361      5.90026      8.80610         0.208267      0.019862     -0.271263
O       9.65608      9.64569      0.39150         0.171226      0.331283      0.100636
O       9.77860      9.79050     12.86614        -0.008008      0.015681      0.415225
O       9.80605      9.81779      4.56169        -0.490652     -0.292907     -0.106327
O       9.65217      9.62243      8.73659        -0.053520     -0.083231      0.112165
O       3.90351      2.04785      2.51897        -0.680562     -0.406310     -0.132789
O       3.89495      1.90273     15.09446        -0.857546      0.197853     -0.073281
O       3.91713     13.63263      2.63421        -1.097905     -0.425528     -0.151950
O       3.91574     13.49113     14.79446        -0.388942     -0.235605      0.362694
O      15.49321      1.92640      2.60728         1.435438      0.071953     -0.384604
O      15.58162      1.92452     14.90414        -0.048305     -0.127970      0.375669
O      15.58440     13.84151      2.41768         0.615965     -0.866491     -0.233017
O      15.53751     13.71911     14.95994         0.285343     -0.702169      0.233540
O       3.92333      1.86286      6.63770        -1.183431      0.041731      0.315049
O       3.88275     13.48144      6.50899         0.287469      0.339029      0.042735
O      15.60244      1.98706      6.63103        -0.476779     -0.212229      0.174523
O       0.02254     13.60448      6.80269        -0.828237     -0.054407      0.036929
O       3.90477      1.89304     10.89236        -0.633487      0.211320     -0.507311
O       3.92086     13.60478     10.79339        -0.870219     -0.122004     -0.365055
O      15.50917      1.87768     10.77607         1.151751      0.317621      0.287141
O       0.04311     13.55685     10.60950        -0.801529      0.221588      0.217709
O       3.76452      5.74079      2.47280         0.359397      0.223841      0.098658
O       3.85009      5.89431     15.00369         0.052503     -0.487352      0.173852
O      15.52331      5.96799      2.64317         0.406366     -0.888354     -0.218753
O       0.00697      5.85967     14.84954         0.380376     -0.306349     -0.018816
O       3.88113      5.80875      6.78790        -0.370947     -0.358779     -0.517550
O      15.49713      5.78570      6.66285         0.362073     -0.357020      0.213203
O       3.79086      5.80418     10.64672         0.233591     -0.092656      0.255148
O      15.45704      5.84932     11.08838         0.456731      0.104058     -0.408707
O       3.81975      9.78876      2.52331         0.186565     -0.421181     -0.002314
O       3.83810      9.74786     14.92887         0.363292      0.067104      0.065909
O      15.57350      9.52021      2.46519        -0.187390      0.627807     -0.012170
O      15.55525      9.69277     15.14387         0.705076      0.062993     -0.444532
O       3.86989      9.57130      6.53034         0.074649      0.100715      0.177453
O      15.56527      9.82652      6.61416        -0.390381     -0.595799      0.147853
O       3.96890      9.71938     10.72724        -1.230469     -0.216778      0.090030
O      15.60060      9.78623     10.72827        -0.009577     -0.469127      0.195409
O       7.75619      1.77994      2.49483         0.104777      0.358163     -0.082251
O       7.83853      1.86289     15.09806        -0.363792      0.115591     -0.151347
O       7.80917     13.65395      2.43883        -0.035977     -0.324146     -0.302970
O       7.79045     13.66214     15.03973        -0.450268      0.228261     -0.161965
O       7.68999      1.98237      6.70973         0.636839      0.405233      0.060693
O       7.83573     13.51791      6.49582        -0.822482     -0.161878      0.556196
O       7.69298      2.02538     10.85812         0.329513     -0.701467      0.376894
O       7.70053     13.70871     10.80526         1.043898     -0.223084      0.115755
O       7.73709      5.90487      2.32840         0.374403     -0.169532      0.583688
O       7.80669      5.76236     15.02680        -0.953363     -0.054231      0.090463
O       7.77953      5.64053      6.59426        -0.587769      0.837254      0.164976
O       7.75705      5.75555     10.82395        -0.505601     -0.169510      0.264942
O       7.70362      9.58559      2.56505         1.106622      0.239114     -0.171391
O       7.76979      9.72188     14.97424         0.297299      0.235530     -0.140772
O       7.80085      9.66767      6.60922        -0.149925      0.095326     -0.153418
O       7.73345      9.73161     10.85651         0.442774     -0.517631     -0.325877
O      11.59936      1.86961      2.61511         0.753515      0.659711      0.303977
O      11.68737      1.91113     15.04078         0.425969      0.312652     -0.143731
O      11.66468     13.60442      2.56756         0.411769     -0.214853     -0.081715
O      11.73301     13.66965     14.91973         0.100169     -0.779683     -0.034207
O      11.59456      2.09975      6.73785         0.318104     -0.932107     -0.210124
O      11.68013     13.59355      6.65588         0.077813      0.516135     -0.188103
O      11.72283      1.81427     10.79095        -0.292927      0.050806      0.070201
O      11.62110     13.70590     10.81437         0.040725     -0.444859      0.203104
O      11.69137      5.65069      2.50534        -0.793099     -0.061920     -0.170409
O      11.74829      5.87050     15.11166        -0.959046     -0.477942      0.169976
O      11.70877      5.81838      6.70051        -1.157002      0.140126      0.119038
O      11.58203      5.73564     10.87814         0.769126      0.478338      0.032225
O      11.63761      9.76260      2.41232         1.275911      0.198535      0.428996
O      11.67554      9.74175     15.00850         0.094229     -0.069264     -0.134586
O      11.66807      9.76031      6.68412         0.080551      0.025881     -0.306869
O      11.70723      9.75967     10.76477        -1.091109     -0.086947      0.544220
O       1.87396      3.87845      2.54814        -0.621438      0.721247      0.110334
O       1.88084      3.84429     14.63607         0.154307      1.101975      0.594449
O       2.05887      0.03441      2.44879        -0.345515     -0.430011     -0.219490
O       1.95791     15.47774     14.94738         0.140030      0.834565      0.263605
O      13.66668      3.83885      2.69798        -0.187483      0.734252     -0.426066
O      13.55487      3.85323     14.93177         0.420158      0.104448      0.386325
O      13.55366     15.56007      2.70408        -0.172075      0.149643     -0.422690
O      13.61678     15.58233     14.83536         0.248501      0.196546      0.217582
O       1.93143      3.77920      6.72389        -0.015917      0.649959      0.061973
O       1.91503     15.57774      6.69464         0.297612     -0.237656     -0.048481
O      13.53722      3.91464      6.75042         0.533240     -0.194602     -0.280743
O      13.66500      0.00725      6.65788        -0.336574      0.170496      0.091554
O       1.84555      3.87793     10.81565         0.005207     -0.495028      0.366894
O       1.91468      0.02058     10.82067        -0.013220     -1.131172     -0.410860
O      13.58441      3.86578     10.73717         0.081473      0.120715      0.526071
O      13.65182     15.52209     10.82937         0.286303      0.721605      0.008064
O       1.90879      7.74438      2.57331         0.488149      0.628803     -0.203701
O       2.07436      7.77469     15.01362        -1.241511      0.468476     -0.403910
O      13.48486      7.67629      2.41952        -0.113483      0.844813     -0.025492
O      13.72985      7.68937     15.11440        -0.381159      1.112755     -0.498431
O       1.85435      7.61478      6.78353        -0.159175      1.489004     -0.189669
O      13.64920      7.84290      6.75858        -0.034218      0.007739     -0.186481
O       1.86057      7.76725     10.77178        -0.057267      0.735891      0.096257
O      13.62198      7.85519     10.94140        -0.028990     -0.261077     -0.188429
O       1.90238     11.71026      2.54657        -0.407344     -0.316956     -0.333914
O       1.88089     11.70062     14.97081        -0.414436     -0.406093      0.126906
O      13.77570     11.65270      2.47001        -0.268841      0.108783     -0.185783
O      13.70565     11.64118     15.05214        -0.296342      0.695742     -0.281709
O       1.92211     11.52885      6.71877        -0.033116      0.734929     -0.332726
O      13.62684     11.75852      6.73324         0.360099     -0.906196     -0.445838
O       1.88447     11.65565     10.67010         0.547404     -0.201567      0.396635
O      13.54493     11.71903     10.65974         0.219993     -0.098082      0.845133
O       5.75982      3.91022      2.50406         0.541473     -0.179419     -0.309725
O       5.72045      3.90136     15.07138         0.787895     -0.165397     -0.171165
O       5.75211     15.53534      2.56697         0.249272      0.443811     -0.586671
O       5.61245     15.50440     15.05782         1.261059     -0.282470     -0.246697
O       5.71998      3.85225      6.62927         0.111405      0.084665      0.122132
O       5.92418     15.58327      6.54649        -0.552457     -0.722121      0.180220
O       5.72150      3.87649     10.80753         0.442443      0.098635      0.114964
O       5.80270     15.49541     10.62152         0.049901      1.100669      0.485597
O       5.73659      7.70637      2.38168        -0.256435      0.954171      0.742200
O       5.85733      7.76357     14.90285        -0.139588      0.347941      0.488401
O       5.85947      7.77402      6.50651         0.360155     -1.070192      0.695733
O       5.81847      7.70814     10.67257         0.178871      0.395537      0.215166
O       5.90077     11.61401      2.64081        -0.212248      0.469230     -0.065877
O       5.91413     11.64912     14.89990        -0.152318      0.117635      0.185507
O       5.81172     11.57463      6.47659         0.353520      0.552022     -0.024195
O       5.81550     11.65153     10.72454         0.385643     -0.378299      0.071734
O       9.49225      3.83931      2.43236         0.577160      0.604319     -0.160836
O       9.77928      3.86839     15.14363        -0.011568     -0.906277      0.190735
O       9.73148     15.54085      2.56719         0.101085     -0.210291     -0.092813
O       9.84118     15.58496     15.02531        -0.643550     -0.105007     -0.070310
O       9.67901      3.93759      6.84319         0.285942     -0.513752     -0.048316
O       9.64865     15.58746      6.54264         0.463066     -0.156687      0.525251
O       9.78747      3.76099     10.81971        -0.474754      1.073787      0.106072
O       9.73409      0.01812     11.03004        -0.767199     -0.816461     -0.249991
O       9.78355      7.78895      2.53157         0.020846     -0.729754     -0.203622
O       9.77179      7.78822     14.93874        -0.235605      0.353611      0.160783
O       9.69090      7.74167      6.61289        -0.128508      0.022428      0.240848
O       9.78716      7.74848     11.01147        -0.270211      0.179631     -0.568724
O       9.69140     11.63044      2.49463        -0.191061     -0.006537     -0.046001
O       9.70212     11.71239     15.02613         0.315738     -0.473050      0.088884
O       9.69655     11.62231      6.60746        -0.112036      0.420119      0.131940
O       9.66176     11.67824     10.84754         0.142547      0.105997     -0.130640
