  # total energy = -7883.10126246 
CRSYTAL
PRIMVEC
    15.6080000000000005    0.0000000000000000    0.0000000000000000
     0.0000000000000000   15.6080000000000005    0.0000000000000000
     0.0000000000000000    0.0000000000000000   16.6239999999999988
PRESSURE
-0.652249 -0.544446 -0.307583 -0.263811 0.362583 -0.000126
PRIMCOORD
320 1
Pb       3.89854      3.79400      4.09855         0.115342      0.399336      0.698385
Pb       3.81844      3.81098      0.05298        -0.066254      0.330136     -0.467255
Pb       3.91123     15.55685      4.17658         0.151116      0.133632      0.361016
Pb       3.86269     15.52593      0.02810         0.399695      0.145659     -0.216696
Pb      15.46332      3.83335      4.11690         0.726939      0.031138      0.280587
Pb      15.56131      3.87677     16.55651         0.319787     -0.207339      0.383090
Pb       0.07757     15.60515      4.14371        -0.076381     -0.170419     -0.290005
Pb       0.07850     15.57509      0.00133        -0.598912      0.102416      0.037914
Pb       3.94036      3.94458      8.34120        -0.147674      0.078961     -0.611072
Pb       3.94855      0.16217      8.42487        -0.238751     -0.541237     -0.132090
Pb      15.59983      3.91631      8.23109         0.296531      0.217650     -0.052149
Pb       0.09124      0.03132      8.27792        -0.315364      0.183185      0.105136
Pb       3.78340      4.00755     12.50685         0.349768     -0.221778     -0.339865
Pb       3.82126     15.48444     12.38375         0.183924      0.661113      0.530817
Pb      15.55341      3.78842     12.30207        -0.055971      0.456215      0.190726
Pb      15.57199     15.59343     12.41697         0.050687     -0.056736      0.270033
Pb       3.78043      7.79994      4.12645         0.341042      0.064750      0.204969
Pb       3.76924      7.75860     16.56482         0.354424     -0.412223      0.138233
Pb      15.59391      7.85755      4.01905        -0.105615     -0.128575      0.665148
Pb      15.60256      7.79891     16.60764        -0.117775     -0.110439      0.018822
Pb       4.00724      7.81533      8.27920        -0.355001     -0.234939     -0.391893
Pb      15.56202      7.82137      8.33361         0.337755     -0.070002     -0.520600
Pb       3.81134      7.85569     12.54612        -0.097055      0.103562     -0.061839
Pb      15.52953      7.75161     12.43858        -0.055977     -0.116810      0.262956
Pb       3.94142     11.71321      4.16691        -0.090648     -0.876666      0.548227
Pb       3.87406     11.67577     16.51506         0.142789      0.054225      0.123276
Pb       0.01826     11.81958      4.13408         0.017739     -0.393015      0.312911
Pb       0.06235     11.79412      0.08857        -0.386725     -0.517418     -0.688455
Pb       3.87702     11.68803      8.27850        -0.206666      0.210365      0.240781
Pb      15.44646     11.71053      8.24918         0.171034     -0.327189      0.281896
Pb       3.77968     11.82745     12.49308         0.164816     -0.536571      0.121067
Pb      15.53893     11.54242     12.37616        -0.156736      0.192622      0.323015
Pb       7.72024      3.85998      4.08848         0.159762      0.185388      0.530922
Pb       7.60638      3.70451     16.60151         0.535758      0.233235      0.149304
Pb       7.69768     15.58079      4.07033         0.703555     -0.394522      0.511212
Pb       7.75986     15.47550      0.03153         0.590126      0.070418     -0.294856
Pb       7.76424      3.91639      8.35827        -0.168837      0.069227     -0.787573
Pb       7.83714     15.53488      8.44343        -0.200526     -0.112404     -0.270892
Pb       7.78410      3.97027     12.50163        -0.288349      0.071823     -0.155279
Pb       7.89428      0.09478     12.51935        -0.015469     -0.010124     -0.143324
Pb       7.63879      7.79288      3.97631         0.857633      0.118536      0.201578
Pb       7.85049      7.83705     16.53351         0.157035      0.126245      0.168546
Pb       7.87906      7.82995      8.40712         0.007741     -0.065850     -0.700160
Pb       7.87853      7.74299     12.53416         0.123035      0.239847     -0.001441
Pb       7.74372     11.77988      4.04940         0.337981     -0.109662     -0.102531
Pb       7.78451     11.56974     16.58157         0.449501     -0.000541     -0.004538
Pb       7.63197     11.65895      8.32317         0.173986      0.211103      0.530310
Pb       7.75660     11.62177     12.50131        -0.040375     -0.160432      0.094896
Pb      11.70839      4.00234      4.24525        -0.107842     -0.195083     -0.565575
Pb      11.76843      3.87919     16.55735        -0.589285      0.480993      0.169338
Pb      11.75473      0.19313      4.21446        -0.298315     -0.779762     -0.341251
Pb      11.68191     15.56308      0.00188        -0.140792     -0.308252     -0.310479
Pb      11.64346      3.88842      8.27509         0.429458      0.024626     -0.052345
Pb      11.49813     15.47951      8.20491         1.140785     -0.221461      0.919664
Pb      11.65808      3.81457     12.43554         0.290535      0.398185      0.018500
Pb      11.79622     15.50516     12.40816        -0.460080     -0.018153      0.440991
Pb      11.76049      7.68169      3.99980        -0.494585      0.561972     -0.148801
Pb      11.65040      7.74392     16.59272         0.072809      0.253351      0.004337
Pb      11.67491      7.84383      8.09700         0.022715      0.384674      0.383622
Pb      11.68775      7.73066     12.50037        -0.111698     -0.068059      0.054911
Pb      11.61234     11.80461      4.29807         0.242411     -0.003986     -0.625020
Pb      11.88468     11.77214     16.59174        -0.252863     -0.380348      0.168811
Pb      11.71061     11.68237      8.25701         0.210409     -0.349218      0.119096
Pb      11.57327     11.63078     12.33395         0.651103     -0.062221      0.714980
Ti       2.00870      1.96341      2.28546        -0.511209     -0.800172     -0.515111
Ti       1.91144      1.88135     14.78938        -0.122429     -0.052557     -0.211317
Ti       2.14875     13.54952      2.21997        -1.911466      0.725723      0.921525
Ti       1.97014     13.65579     14.65727        -0.282551     -1.380706      0.178332
Ti      13.65666      1.90480      2.22226         0.462996     -0.084721     -0.244405
Ti      13.52018      1.97506     14.72024         2.024699     -0.797772      0.380967
Ti      13.72331     13.66859      2.25098        -0.537778      0.039204      0.558169
Ti      13.68757     13.69352     14.61786         0.343117     -0.421835     -0.443940
Ti       1.90055      1.97766      6.35114         0.233280      0.091423     -0.197635
Ti       1.97318     13.64237      6.42461        -0.057136     -0.352578      0.156712
Ti      13.57486      1.93981      6.33695         1.029625      0.180496      0.463715
Ti      13.67236     13.72770      6.33313         0.045392     -0.713836     -0.251217
Ti       1.97207      1.87260     10.56408         0.095299      1.023684     -0.560293
Ti       1.84459     13.56367     10.48511         0.535239      0.159494      0.262146
Ti      13.62852      1.86657     10.42241        -0.040109      0.214125     -1.319870
Ti      13.65682     13.62386     10.53488        -0.437322     -0.917341      0.048200
Ti       1.94483      5.81361      2.22408        -0.426389     -0.220013     -1.319587
Ti       1.90115      5.74829     14.65550         0.622540      0.704383      1.468962
Ti      13.69479      5.80424      2.16330        -0.286444      0.517593     -0.592668
Ti      13.68446      5.86806     14.78298        -0.367446      0.862751     -0.766690
Ti       2.01638      5.86179      6.28445        -0.142415      0.157127      0.071315
Ti      13.71146      5.81824      6.24203         0.887458      0.343234     -0.087056
Ti       1.92804      5.88637     10.49218        -0.893546     -0.608307     -0.834400
Ti      13.58277      5.77520     10.41454         1.009372      0.373710      1.575128
Ti       1.88875      9.72965      2.23871         0.436954      0.255866     -0.494078
Ti       1.94003      9.74005     14.74565        -1.260231     -0.072528     -0.578026
Ti      13.59026      9.84757      2.29350         0.059747     -0.103647     -1.038856
Ti      13.71725      9.78309     14.66832        -0.092030     -0.703784      1.095608
Ti       1.95308      9.68908      6.40821        -0.807584      0.306038     -0.209900
Ti      13.66363      9.71720      6.32243        -0.125529      0.393681      0.222486
Ti       1.89816      9.72788     10.51408        -0.777779     -0.152148      0.218616
Ti      13.53386      9.64263     10.58187         0.773384      0.768597     -0.770140
Ti       5.85731      1.84909      2.26892        -0.087859      0.324538      0.044509
Ti       5.79816      1.92878     14.63575        -0.264073     -0.260590     -0.605211
Ti       5.82871     13.60173      2.12881         1.251564     -0.217490     -0.487448
Ti       5.93337     13.66115     14.61265        -0.997762     -0.427770      1.957275
Ti       5.82576      1.86540      6.45064         0.383314      1.652521     -0.764583
Ti       5.83207     13.69496      6.50242         0.481328     -0.263309     -0.904229
Ti       5.88638      2.06729     10.55733        -0.302087     -0.727149      0.636435
Ti       5.87738     13.69780     10.68196        -0.229807     -0.966469     -1.488483
Ti       5.79105      5.75112      2.14439         0.537162      0.451827      0.993149
Ti       5.88045      5.83354     14.65721        -0.757211     -0.051429     -0.248179
Ti       5.98461      5.92289      6.35738        -0.342026     -0.947979      0.357216
Ti       5.81677      5.94063     10.38999        -0.035697     -0.218323      1.449944
Ti       5.79901      9.72848      2.17197         0.272727     -0.192193     -0.477532
Ti       5.81415      9.73261     14.76473         0.857586     -0.274137     -0.757584
Ti       5.83333      9.76731      6.39127         0.102487     -0.760546     -1.552770
Ti       5.76367      9.77449     10.67812         0.077446      0.395945     -0.431719
Ti       9.77336      1.94895      2.28000        -0.167125     -0.708578     -1.125683
Ti       9.68018      1.96528     14.64505        -0.034034     -0.727419      0.023072
Ti       9.79780     13.66601      2.21204         0.061917     -0.102458     -0.634278
Ti       9.79560     13.58608     14.67359         0.132642      0.231799      0.675613
Ti       9.73724      1.89288      6.47128        -1.149837      0.322415     -0.778615
Ti       9.73072     13.52074      6.40307        -0.682181      0.830709     -0.521508
Ti       9.75375      1.97042     10.51108         0.209089     -0.727704      1.629157
Ti       9.70606     13.58889     10.65026         0.268257      0.639454     -0.367433
Ti       9.72122      5.77122      2.14725         0.310728      1.447588     -0.181498
Ti       9.73167      5.80137     14.70750         0.566305      0.751427     -0.116720
Ti       9.88000      5.78891      6.37168        -2.089781      0.677707      0.397689
Ti       9.72294      5.82472     10.50873         0.451885      0.651704      0.058021
Ti       9.79746      9.84404      2.17507        -0.624158     -0.853585     -1.061129
Ti       9.88677      9.76071     14.68666        -0.597415     -0.777385     -0.152488
Ti       9.63749      9.72653      6.24905         0.888710     -0.021201      0.447049
Ti       9.61955      9.73516     10.49197         0.655468     -0.531252      1.764708
O       1.98296      1.96717      0.48538         0.109903     -0.355351      0.061604
O       1.88153      1.69575     13.02324         0.045247      0.514886     -0.382131
O       2.16373     13.55777      0.46455        -0.286890     -0.184341     -0.046390
O       1.93037     13.66314     12.90437         0.094911      0.099588     -1.000672
O      13.68100      1.89110      0.43765        -0.348312      0.094113     -0.001946
O      13.66482      1.99754     12.99067         0.150876     -0.049091     -1.073958
O      13.59354     13.65414      0.47277         0.080720      0.008993     -0.382765
O      13.62191     13.65621     12.80778         0.444356      0.085133      0.939897
O       2.00840      1.95256      4.54933         0.042991     -0.348220      0.341777
O       1.91572     13.55498      4.62317         0.239945      0.627631      0.536741
O      13.60778      1.96029      4.52045         0.198965      0.113128      0.014321
O      13.76635     13.59280      4.52997        -0.137836      0.384930      0.933872
O       1.87750      1.97446      8.75654         0.194409     -0.412054      0.581230
O       1.99265     13.60353      8.72025        -0.076022      0.060686      0.083297
O      13.63776      1.78068      8.56218        -0.047009      0.610657      1.655872
O      13.59092     13.60866      8.77325        -0.175122      0.318041     -0.685737
O       1.90358      5.70471      0.37928         0.289281      0.173988      1.172607
O       2.15433      5.75985     12.91758        -0.626209      0.012601     -1.041281
O      13.70523      5.91745      0.32436        -0.083220     -0.697313      1.357156
O      13.71348      5.92239     13.02385        -0.408635     -0.487733     -0.738195
O       2.05935      6.01717      4.46647        -0.048077     -0.528304      0.457917
O      13.56865      5.80142      4.41615         0.155353     -0.035932      0.405513
O       1.80995      5.76628      8.66193         0.398044      0.325387      1.089618
O      13.76683      5.74050      8.69066        -0.460304      0.288281     -1.130065
O       1.91083      9.72148      0.43001         0.090069      0.192860      0.657993
O       1.78211      9.53661     12.97024         0.594624      0.603008      0.093159
O      13.67937      9.90093      0.49220        -0.104958     -0.083075      0.601397
O      13.68715      9.69845     12.91353         0.221391      0.127114     -0.870265
O       1.99305      9.59028      4.62259         0.061116      0.123261     -0.353405
O      13.67020      9.72747      4.56995        -0.270338      0.242025     -0.364557
O       1.85759      9.76552      8.75207         0.356985     -0.452099     -0.609191
O      13.47196      9.73834      8.78026         0.448635     -0.699908     -0.124248
O       5.91174      1.93127      0.50313         0.070295      0.008359     -0.785443
O       5.91001      2.04753     12.85500        -0.068885     -0.247214      0.067733
O       5.73565     13.66080      0.34016         0.004634     -0.165904      0.681113
O       5.91518     13.51382     12.89468        -0.096170      0.120238     -1.623553
O       5.76140      1.86154      4.60646         0.145291     -0.229127      0.913151
O       5.88860     13.74274      4.64118         0.013444     -0.415875      1.096762
O       5.86532      1.94308      8.77065        -0.222817     -0.348229     -0.033117
O       5.88552     13.49426      8.81854        -0.324099      0.512836      0.284697
O       5.98139      5.69217      0.42341        -0.204725     -0.128433     -0.256577
O       5.89098      5.79945     12.83383        -0.154668      0.043615      0.419534
O       5.84142      5.86593      4.59370         0.209945     -0.160149     -0.514607
O       5.88270      5.96097      8.60881        -0.112657     -0.321982      0.772532
O       5.84155      9.63846      0.37865         0.050044      0.493667      0.114567
O       5.75685      9.60443     12.94917         0.151061      0.155192     -0.019271
O       5.79070      9.70508      4.57596         0.325122      0.359381      0.353309
O       5.93950      9.80367      8.88508        -0.861496     -0.317805     -0.822123
O       9.66751      1.78667      0.46946         0.287807      0.266446      0.570138
O       9.66066      2.05224     12.84607         0.166161     -0.248171      0.771500
O       9.75104     13.70696      0.40898         0.421219      0.171667     -0.336130
O       9.83139     13.58025     12.92119        -0.403876     -0.355945     -0.944958
O       9.76244      1.93128      4.70008         0.158153     -0.171197     -0.378613
O       9.66904     13.67028      4.62162        -0.031429     -0.739538      0.064955
O       9.74067      1.75864      8.78314         0.308684      0.208716     -1.454057
O       9.80548     13.63848      8.87234        -0.004422      0.277960     -0.354793
O       9.84903      5.87877      0.35850        -0.592493     -0.438893      0.212305
O       9.84572      5.82223     12.90109        -0.346431     -0.348625     -0.383615
O       9.88717      5.66294      4.62982        -0.068883      0.138624     -0.570800
O       9.73173      5.92768      8.73996         0.371348     -0.378804     -0.415867
O       9.81397      9.69207      0.31567        -0.050790      0.014177      0.757148
O       9.80957      9.75426     12.87447        -0.367359     -0.071735     -0.353460
O       9.81653      9.89078      4.51478        -0.469264     -0.096548     -0.367758
O       9.67837      9.76205      8.77922         0.000632     -0.370554     -1.381041
O       3.95904      2.02843      2.55967        -0.401326     -0.597502     -0.127274
O       3.90404      1.96718     15.06356        -0.039181     -0.007317     -0.048081
O       3.97617     13.46753      2.69103         0.241186      0.424315     -0.662369
O       3.83536     13.40684     14.95280         0.907345      0.431576     -0.420456
O       0.08087      1.82337      2.59278        -0.287534     -0.082013     -0.086715
O       0.00472      1.81286     15.17715         0.128889      0.233218     -0.462065
O       0.04023     13.71086      2.43477         0.888878      0.202077      0.246787
O       0.03195     13.53694     14.94223        -0.660051      1.008248      0.649287
O       3.83413      1.85892      6.80116         0.635042      0.202749     -0.156273
O       3.88893     13.67718      6.77513         0.064269      0.077320     -0.270336
O      15.56996      1.99553      6.64567         0.311349     -0.299079     -0.249371
O      15.54454     13.71775      6.87396         0.534557     -0.382493     -0.910689
O       3.89739      2.00947     10.86220        -0.078728     -0.737109     -0.250152
O       3.90897     13.60413     11.00426        -0.407237     -0.258511     -0.668107
O      15.57918      1.76981     10.87608         0.145328      0.503635     -0.260881
O      15.58472     13.72271     10.73934         0.325895      0.033367      0.191068
O       3.86673      5.75582      2.36882         0.828800      0.077641      0.227987
O       3.96658      5.71774     14.98135        -0.217334     -0.333479      0.228988
O       0.01405      5.93578      2.46477        -0.109410     -0.282899      0.227481
O       0.04878      5.92688     14.92022        -0.159961     -0.688708      0.253048
O       3.93556      5.88665      6.69826        -0.408588      0.148587      0.048641
O      15.59961      5.82805      6.51501        -0.092956     -0.356885      0.082621
O       3.85379      5.66070     10.77165         0.720638      0.804023     -0.459989
O      15.59090      5.87529     10.80751         0.067652     -0.508261      0.251377
O       3.93390      9.92913      2.43497        -0.142666     -0.604734      0.343085
O       3.84920      9.77609     15.01313         0.604927     -0.342470      0.026803
O       0.01065      9.80670      2.66773         0.243143     -0.301479     -0.628121
O       0.05704      9.56245     15.15121        -0.764819      0.815718     -0.632200
O       3.84604      9.65472      6.63678         0.967261     -0.179398      0.765799
O      15.57619      9.80248      6.70546        -0.238057     -0.546472      0.048134
O       3.74379      9.80325     10.97250         1.231814     -0.373670     -0.260028
O      15.56942      9.75024     10.86109        -0.246279     -0.810416     -0.100259
O       7.81893      1.85053      2.65021         0.009807      0.407078     -0.336756
O       7.73122      1.75211     14.95106         0.761780      0.252066      0.176741
O       7.80999     13.63532      2.32642        -0.727261      0.253247      0.822774
O       7.76712     13.65570     15.00443         0.679310     -0.168161     -0.085533
O       7.77058      1.86686      6.70683         0.430489      0.130370      0.235856
O       7.76086     13.45450      6.81322        -0.305889      0.956115     -0.328499
O       7.86666      1.88741     10.83234        -0.804815     -0.017893     -0.021622
O       7.77129     13.52677     10.85441         0.928844      0.562820      0.440342
O       7.80552      5.79048      2.59847        -0.304375     -0.225643     -0.363803
O       7.84912      5.87461     14.88505        -0.462172     -0.296106      0.242896
O       7.88696      5.73105      6.74781        -0.534544      0.241718     -0.360438
O       7.83491      5.84653     10.80346        -1.130819      0.059424     -0.050605
O       7.89630      9.71890      2.34813        -1.075283     -0.080787      0.771465
O       7.80161      9.65267     14.94433        -0.605064      0.077358      0.233402
O       7.76955      9.64645      6.60864        -0.490585      0.886419      0.245834
O       7.72081      9.57214     10.86373         0.523861      0.614614      0.431123
O      11.74999      1.95318      2.50700        -0.586309      0.003369      0.095902
O      11.69171      2.00015     14.90000        -1.286186     -0.359357      0.536252
O      11.67939     13.53666      2.56372         0.711431      0.474860      0.094079
O      11.78046     13.54304     14.96298        -0.669490      0.270478      0.150237
O      11.70009      1.98253      6.61090        -0.619442     -0.364681      0.439269
O      11.71932     13.50603      6.58260        -0.172170      0.606408      0.233014
O      11.74622      2.02498     10.84448        -0.382919     -0.189735     -0.222317
O      11.77226     13.58685     10.91236        -1.071117      0.083586     -0.203743
O      11.73379      5.75453      2.38570         0.491941     -0.238379      0.426956
O      11.70212      5.82364     15.01427        -0.101504     -0.228766      0.186891
O      11.74191      5.79310      6.61647         0.064817      0.078238      0.489651
O      11.71415      5.75763     10.82242        -0.052064     -0.187174     -0.212107
O      11.64957      9.83394      2.51657         1.689394     -0.063947      0.331752
O      11.75861      9.67440     14.89206         0.368150      0.298015      0.312183
O      11.63490      9.70144      6.67605         0.206098      0.161418     -0.151650
O      11.68432      9.76361     10.88085        -0.549434     -0.326440     -0.193202
O       1.91990      3.82977      2.54617         0.009821      0.995480      0.141503
O       1.87498      3.78990     15.08644         0.210552      0.392088     -0.626482
O       2.30111     15.53524      2.52196        -1.003591     -0.204044     -0.164615
O       2.04627     15.46680     15.18059        -0.359315      1.248440     -0.257781
O      13.86242      3.87879      2.47196        -0.630532      0.073659     -0.457900
O      13.63300      3.90197     14.99412         0.362264     -0.331042      0.453544
O      13.67135      0.01947      2.58779        -0.201257     -0.231199      0.066011
O      13.62775     15.58156     14.99520        -0.040302     -0.199116      0.015349
O       1.97152      3.92625      6.55941         0.026870     -0.317729      0.236291
O       1.89920      0.02062      6.67148        -0.041608     -0.444294     -0.010519
O      13.63241      3.91191      6.48772        -0.178982     -0.352688      0.521814
O      13.58496      0.01159      6.47449        -0.013818     -0.510150      0.184423
O       1.91406      3.84567     10.81815        -0.446302     -0.377445      0.517680
O       1.97528     15.50493     10.86854         0.122916      0.706463     -0.426838
O      13.77193      3.82792     10.73196        -0.265568      0.098444      0.140408
O      13.55739      0.03045     10.90334         0.388468     -0.362797     -0.478256
O       2.00218      7.81095      2.47037         0.109155     -0.066189     -0.150701
O       2.04047      7.67524     15.03344         0.141020      0.255753     -0.085134
O      13.63302      7.88367      2.49357        -0.026017     -0.753145     -0.044011
O      13.67745      7.81116     15.06794        -0.146322      0.110043      0.029456
O       1.84293      7.75634      6.69682         0.285949      0.104674      0.377996
O      13.69679      7.73349      6.53560        -0.428005      0.423315      0.626731
O       1.82863      7.77114     10.87562         0.949666     -0.435440     -0.469276
O      13.63344      7.71570     10.92811        -0.246402      0.183010     -0.720920
O       1.94524     11.66024      2.66341         0.106081      0.423817     -0.511232
O       1.81410     11.66350     14.95760         0.470819     -0.575444      0.300934
O      13.82485     11.79189      2.58296        -0.685362     -0.871586     -0.174928
O      13.74716     11.66780     15.00944        -0.010659      0.256263     -0.023799
O       1.98275     11.64796      6.64192        -0.037591      0.854981      0.210765
O      13.63848     11.65776      6.68973        -0.100738      0.278254     -0.088667
O       1.80853     11.63795     10.83473         0.473866      1.188964      0.229270
O      13.75922     11.63203     10.74072        -0.407194      0.610939      0.502335
O       5.81826      3.76266      2.61096         0.673041      1.592602     -0.326435
O       5.99199      3.84158     14.95851        -0.195818     -0.159016      0.094741
O       5.83675     15.53747      2.43814        -0.358404     -0.130914      0.394109
O       5.65578     15.51243     14.86575         0.379818      0.668350      0.206517
O       5.83741      3.84949      6.76467        -0.001249     -0.142129     -0.061372
O       5.91965     15.59656      6.84442        -0.423107     -0.670454     -0.015243
O       5.86860      3.90320     10.66163         0.417702      0.498235      0.243655
O       5.86925     15.54768     10.86948        -0.060003      0.674294      0.044021
O       5.90429      7.79173      2.48062        -0.671043     -0.515932     -0.273747
O       5.79962      7.69168     15.10197        -0.028535      0.549335     -0.409884
O       5.91559      7.78224      6.63767        -0.271508      0.540618      0.486744
O       5.71885      7.80354     10.72062        -0.234629     -0.992413      0.286462
O       6.03264     11.69349      2.47455        -0.697012     -0.151041     -0.021876
O       5.95752     11.65642     14.99688        -0.480776     -0.539725     -0.030731
O       5.74076     11.63867      6.71365         0.137820      0.330358     -0.099498
O       5.86424     11.68191     10.87532        -0.197405     -0.823640      0.708778
O       9.73980      3.86842      2.51387        -0.029505     -0.752421      0.042970
O       9.70409      3.83161     14.95375        -0.094909     -0.320794      0.276494
O       9.77269     15.53078      2.63207         0.206368      1.289346     -0.105712
O       9.72100     15.47209     14.89937         0.481881      1.254791      0.204741
O       9.76201      3.83834      6.79084         0.256134     -0.061159      0.246932
O       9.70824     15.45950      6.81702        -0.129110      1.003009     -0.503955
O       9.69959      3.86014     10.74096         0.328516      0.193197      0.012974
O       9.80199     15.54880     11.03158        -0.204069      0.323348     -0.584529
O       9.84557      7.69825      2.49837        -0.145684     -0.066374      0.198719
O       9.72558      7.78965     14.86454         0.347835     -0.676830      0.435874
O       9.62741      7.82344      6.61398         0.847042     -0.823304      0.123425
O       9.72927      7.76423     10.82545         0.266365      0.091859      0.143222
O       9.78678     11.70473      2.34593        -0.516422      0.226919      0.773455
O       9.73286     11.59405     14.93231        -0.136112      1.603776      0.337618
O       9.69674     11.70894      6.70750         0.259062     -1.325260     -0.052397
O       9.70175     11.68252     10.79808         0.000478     -0.638386      0.478051
