  # total energy = -7881.73208582 
CRSYTAL
PRIMVEC
    15.6080000000000005    0.0000000000000000    0.0000000000000000
     0.0000000000000000   15.6080000000000005    0.0000000000000000
     0.0000000000000000    0.0000000000000000   16.6239999999999988
PRESSURE
-0.149465 -0.663296 0.097159 -0.060255 -0.068698 -0.024833
PRIMCOORD
320 1
Pb       3.79399      3.81604      4.07976         0.125256     -0.177029      0.100124
Pb       3.75534      3.75728      0.02245         0.529291      0.529830     -0.001722
Pb       3.91591     15.46175      4.27575         0.014976      0.445426     -0.215315
Pb       3.95250     15.55871      0.09540         0.003597     -0.014339     -0.442347
Pb      15.52319      3.83903      4.15178         0.091288      0.176805     -0.224542
Pb      15.55512      3.94335     16.57212        -0.063874      0.006829     -0.191893
Pb       0.12415      0.00391      4.23336        -0.343956      0.051174      0.312593
Pb       0.02346     15.54117      0.01611        -0.077934      0.060199     -0.360478
Pb       4.00090      4.03149      8.33553         0.294972     -0.548211      0.268082
Pb       3.88912      0.11599      8.50337         0.562460     -0.016938     -0.622642
Pb       0.08436      3.92525      8.21946        -0.129638      0.108207      0.149243
Pb       0.06295      0.08860      8.30696         0.228785     -0.488905     -0.108989
Pb       3.92137      3.97555     12.32715        -0.221226     -0.606880      0.848009
Pb       3.88877      0.02668     12.31363        -0.255982      0.058594      0.518969
Pb      15.51543      3.73119     12.23398         0.028837      0.905349      0.793333
Pb      15.43862     15.59806     12.36134         0.605798     -0.105350      0.253789
Pb       3.88660      7.70585      4.24566        -0.571406     -0.106965     -0.806677
Pb       3.81397      7.82511     16.61478         0.062235     -0.750923      0.251279
Pb      15.55181      7.78665      4.08050        -0.046760      0.031657     -0.239607
Pb       0.02414      7.79568      0.02276        -0.303994     -0.024299     -0.149199
Pb       4.02289      7.84551      8.23911        -0.150867      0.041869     -0.071604
Pb       0.13262      7.85612      8.08595        -0.549464     -0.073768      0.545348
Pb       3.75088      7.85403     12.51471         0.482041     -0.648160      0.436811
Pb       0.01952      7.75566     12.39488        -0.902604     -0.126715      0.859731
Pb       3.98758     11.63729      4.26408        -0.222092      0.271049     -0.601013
Pb       3.90342     11.64992     16.54824         0.064983      0.036480      0.188851
Pb       0.06725     11.76683      4.21268        -0.275402     -0.001214     -0.052951
Pb       0.05171     11.70832      0.04542        -0.118261     -0.257142     -0.339277
Pb       3.89406     11.51232      8.25834        -0.184529      0.562481      0.489339
Pb      15.47742     11.72175      8.37020         0.535697      0.279251     -0.652074
Pb       3.77837     11.78972     12.59758        -0.162908     -0.006859     -0.433581
Pb      15.42609     11.62357     12.38977         0.205438     -0.090601      0.394769
Pb       7.78624      4.03707      4.11075        -0.007466     -0.997709     -0.037535
Pb       7.65633      3.67835      0.06994         0.211488      0.108093     -0.169395
Pb       7.76765      0.02551      4.10679         0.139308      0.244912      0.101107
Pb       7.80276     15.38630     16.59459        -0.347473      0.965339      0.243404
Pb       7.80605      3.98870      8.15305        -0.303889     -0.541136      0.460678
Pb       7.75408     15.53985      8.43311        -0.255358      0.347743     -0.516202
Pb       7.75606      4.16629     12.44669        -0.025710     -1.728158      0.404231
Pb       7.83651      0.13024     12.47188         0.365228     -0.291597      0.373581
Pb       7.62954      7.77994      3.99958         0.641435     -0.301892      0.943251
Pb       7.92850      7.75937     16.57352        -0.739935     -0.121091      0.588026
Pb       7.75482      7.79867      8.43777         0.351762      0.029674     -0.057486
Pb       7.75741      7.88569     12.57527         0.138632     -0.228122     -0.341138
Pb       7.73100     11.71602      4.10515        -0.244479      0.272119     -0.247165
Pb       7.86265     11.49952      0.01224        -0.282854      0.208255     -0.052898
Pb       7.62670     11.61116      8.39318         0.846863      0.131183      0.445213
Pb       7.70238     11.69426     12.55069         0.277916      0.225432     -0.329951
Pb      11.59136      4.03660      4.08780         0.363512     -0.297796      0.148187
Pb      11.68544      3.71168     16.38453         0.092117      0.611057      0.934405
Pb      11.92008      0.22714      4.20756        -0.477541     -0.028800     -0.025575
Pb      11.73793     15.55454      0.05063         0.104847      0.537091     -0.772894
Pb      11.70050      3.71065      8.13045        -0.350773      0.262311     -0.001084
Pb      11.65925     15.39546      8.22930        -0.278240      0.340006      0.057625
Pb      11.56984      3.92253     12.40125         0.502761     -0.543555      0.236762
Pb      11.89301     15.58285     12.50693        -0.969771     -0.034691      0.007886
Pb      11.69108      7.85550      4.06686         0.401447     -0.184150      0.176421
Pb      11.65345      7.72720     16.55572         0.389919     -0.016468      0.183216
Pb      11.72744      7.80642      8.12166        -0.557930      0.078693      0.209698
Pb      11.87299      7.53756     12.42040        -0.580470      1.305809      0.733193
Pb      11.50751     12.03041      4.17859         0.786672     -1.079539      0.540511
Pb      11.80695     11.78841     16.62353        -0.276355     -0.354983     -0.116778
Pb      11.62536     11.52770      8.10513        -0.195985      0.663143      1.087506
Pb      11.58943     11.56892     12.44117         0.315041      0.038250     -0.373340
Ti       1.89801      1.80313      2.20654         0.683495      0.750133      2.301125
Ti       1.98850      1.87589     14.58649        -0.497221      0.335949     -1.170258
Ti       1.89909     13.59827      2.26703         0.882831     -0.059153      0.045189
Ti       1.95268     13.66811     14.64038        -0.478186      0.335069      0.358983
Ti      13.68508      1.98088      2.14763         0.055000     -0.068900     -0.252682
Ti      13.75769      1.92140     14.68833        -0.816749     -0.395721      0.125393
Ti      13.60867     13.68026      2.29902         1.348048     -0.412922      0.285578
Ti      13.66560     13.66916     14.74821        -0.024040      0.330468      1.031637
Ti       2.08071      1.99159      6.47303        -0.387825     -0.191226     -0.755417
Ti       2.06342     13.70395      6.47605        -1.405946     -0.384161      0.117637
Ti      13.74643      1.92560      6.43857        -0.066686      0.070959     -0.722196
Ti      13.66233     13.65952      6.34220         0.927574     -0.544938      0.531475
Ti       1.91289      2.04903     10.43150         1.063375     -0.520835      0.689999
Ti       1.87762     13.71191     10.53459         0.183786     -0.786517     -1.347910
Ti      13.57367      1.90646     10.37648        -0.253851      0.416745      0.594208
Ti      13.62360     13.55779     10.42652        -0.851263     -0.124887      0.852579
Ti       1.90812      5.80419      2.26521         0.750115      0.406607      0.600909
Ti       1.88669      5.77655     14.69519        -0.047977      0.549891      0.222645
Ti      13.64600      5.85329      2.16866         0.405540      0.689168     -0.511479
Ti      13.63499      5.85580     14.63526        -0.498801      0.444173      0.148715
Ti       1.91033      5.89220      6.33042         0.643567     -0.606535      0.346415
Ti      13.63399      5.82122      6.46735        -0.080650      0.143927     -1.133813
Ti       1.95163      5.89721     10.48577        -0.249405     -0.418478      0.407857
Ti      13.62252      5.81944     10.41222         0.995452     -0.354073     -0.741984
Ti       2.04973      9.79264      2.26692        -1.071103     -0.816506      0.487349
Ti       1.88974      9.75313     14.61809        -0.559106     -0.127153      0.330932
Ti      13.69023      9.82299      2.19189         0.291581     -0.391901     -0.424950
Ti      13.53957      9.82058     14.69206         1.432583     -0.954929     -0.224288
Ti       1.89565      9.87762      6.32167         0.166103     -0.420823     -0.230404
Ti      13.63444      9.77711      6.25121        -0.005387     -0.365587     -0.060929
Ti       1.97225      9.76267     10.56617        -0.737408      0.535084     -0.761542
Ti      13.63657      9.64681     10.40421        -0.525005      0.327739      1.281670
Ti       5.82074      1.87907      2.29754         0.199845      0.540866     -0.456668
Ti       5.76517      1.90406     14.67682         0.875311     -0.100689     -0.749711
Ti       5.82827     13.62667      2.20985        -0.289187     -0.587056     -0.905488
Ti       5.81208     13.61427     14.70644         0.214262      0.536506     -0.670872
Ti       5.86359      1.94593      6.43731         0.763703     -0.755293     -0.042893
Ti       5.81220     13.58299      6.53626         0.872800      1.442346      0.194138
Ti       5.83004      1.84601     10.60182         0.480761      2.484443     -1.148509
Ti       5.80009     13.53873     10.58332         0.132806      0.184901     -1.182193
Ti       5.83178      5.79592      2.26875        -1.714820     -0.653264     -2.383122
Ti       5.70391      5.81826     14.75724        -0.254658     -0.164654      0.935879
Ti       5.73511      5.82878      6.30372         1.969452     -0.353068      0.724690
Ti       5.85131      5.83933     10.70112         0.113128     -0.451884     -1.023996
Ti       5.80794      9.63918      2.20682        -0.515400      0.540104     -1.167017
Ti       5.78101      9.62113     14.72538         0.369615      0.602697      0.508939
Ti       5.89967      9.74645      6.31892        -0.416841     -0.801660      0.124325
Ti       5.78923      9.68731     10.64892         1.023575     -0.481279     -0.829662
Ti       9.81493      1.93429      2.17144        -1.202845      0.063631      0.217210
Ti       9.71596      1.86948     14.76197        -0.347032     -0.180966      0.085817
Ti       9.75548     13.67462      2.17138        -1.340674      1.014635      0.512110
Ti       9.70559     13.66293     14.70977         0.467641     -0.174700     -0.864457
Ti       9.74027      1.91201      6.23374        -0.794692      0.297938      0.415927
Ti       9.61766     13.67072      6.39220        -0.098728     -0.388511      0.757346
Ti       9.73025      1.89362     10.47616        -0.485441     -0.384585     -0.079882
Ti       9.72079     13.60724     10.52815         0.245642      0.019764      0.135375
Ti       9.78880      5.88787      2.21779        -0.357167     -0.862418     -0.363203
Ti       9.62324      5.74751     14.71616         0.876816     -0.147854      1.098909
Ti       9.70693      5.82777      6.29524        -0.078348      0.380315     -0.105668
Ti       9.80829      5.78567     10.46300        -1.681909      0.921309     -0.345978
Ti       9.75020      9.75786      2.34186         0.260634     -0.476159     -1.691324
Ti       9.78965      9.73582     14.76999        -0.435785      0.062751     -0.051382
Ti       9.64104      9.73242      6.29033         0.239770     -0.236349      0.057092
Ti       9.74206      9.61212     10.67262         0.071410     -0.156456     -1.662915
O       2.10692      1.81273      0.51279        -0.378717      0.092008     -1.487641
O       1.94028      2.07430     12.73591        -0.143460     -0.921467      1.584312
O       2.01600     13.59402      0.49619        -0.297937     -0.122845     -0.320593
O       1.87537     13.67285     12.86210         0.102092     -0.176078     -0.178787
O      13.66764      1.82230      0.35780         0.034094      0.706244      1.000103
O      13.60833      1.81919     12.90058         0.698144      0.067975     -0.605359
O      13.70973     13.57756      0.53166        -0.483942      0.384249     -0.440677
O      13.76556     13.80633     13.04314         0.042459      0.061916     -2.241164
O       1.96184      1.79213      4.68372        -0.245175      0.200919     -0.085748
O       1.98577     13.70641      4.67631        -0.086020      0.023683      0.034029
O      13.71070      1.99045      4.64162        -0.057714     -0.342727     -0.614866
O      13.63835     13.56793      4.56963        -0.200437      0.185620     -0.364909
O       1.92544      1.99797      8.65472         0.226235     -0.430311     -0.082757
O       1.77692     13.63949      8.70352         0.551601     -0.092811      0.644457
O      13.63799      1.95974      8.59872        -0.341102     -0.248404      0.863125
O      13.55410     13.55846      8.68546         0.148968      0.233271     -0.379684
O       1.95117      5.92602      0.52249        -0.391256     -0.464415     -1.324954
O       1.74850      5.92177     12.95713         0.590606     -0.586868     -0.696622
O      13.72903      5.92654      0.37113        -0.188677     -0.239810      0.454635
O      13.49901      5.80428     12.82203         0.429707     -0.346557      0.453435
O       1.97709      5.91775      4.59902        -0.101592     -0.637254     -0.994671
O      13.71449      5.83370      4.67790        -0.094446      0.007484     -0.359601
O       1.86766      5.89440      8.73249         0.381631      0.509881     -0.023409
O      13.76232      5.84316      8.60312        -0.558432     -0.097699      0.632363
O       1.94485      9.85423      0.48591         0.285543      0.061974     -0.421163
O       2.02204      9.76219     12.82583        -0.030227      0.037016      0.352003
O      13.73196      9.79966      0.35145        -0.245027      0.170870      0.525749
O      13.56057      9.72242     12.93218        -0.146912      0.484517     -0.225705
O       1.95754      9.87482      4.54232        -0.026727     -0.369384      0.615182
O      13.68888      9.62762      4.48018        -0.355487      0.579330      0.128173
O       1.91334      9.71142      8.70947         0.219301     -0.182695      0.670059
O      13.69142      9.72396      8.65635        -0.151509     -0.237970     -0.090609
O       5.67595      1.86166      0.47806         0.323223      0.516289      0.369863
O       5.69078      1.82316     12.85463         0.100095     -0.130396      0.722892
O       5.87743     13.63603      0.39214        -0.400790      0.119616      0.515257
O       5.86810     13.73549     12.86957        -0.177403     -0.708721      0.050661
O       5.97210      1.90968      4.68335        -0.266729     -0.230898     -1.217703
O       5.89852     13.57444      4.77323         0.107806      0.024271     -1.424788
O       5.81815      2.07825      8.77662         0.011564     -0.556038      0.628566
O       5.83651     13.53149      8.73304        -0.509618      0.049735      1.479042
O       5.63253      5.83499      0.40587         0.593391     -0.440214      0.956823
O       5.53657      5.78083     12.99078         0.974445      0.271260     -0.826256
O       5.82276      5.87832      4.57524        -0.197540     -0.105626     -0.845929
O       5.84067      5.67679      8.93373         0.031639      0.647833     -1.420524
O       5.83094      9.70693      0.38553        -0.159692      0.026107      0.337769
O       5.84570      9.59204     12.95729        -0.105273      0.507434     -1.595055
O       5.79136      9.68197      4.53950         0.299498      0.275076      0.223794
O       5.93726      9.64791      8.79182        -0.686273      0.051106      0.580984
O       9.77410      1.91680      0.36629         0.197858     -0.213339      0.673809
O       9.64620      1.81780     13.02694         0.298453      0.476218     -1.479737
O       9.74216     13.75973      0.42004         0.238902     -0.143549      0.085355
O       9.60070     13.62660     12.90875         0.236652     -0.492715      0.066443
O       9.73325      2.06134      4.45654         0.251008     -0.292670      0.560601
O       9.60752     13.40406      4.62176        -0.220301      0.490325     -0.467756
O       9.75161      1.87967      8.68835         0.172172     -0.073889      0.755520
O       9.82428     13.72169      8.73228         0.011122      0.316197      0.065991
O       9.62565      5.91659      0.44784         0.438668     -0.056902     -0.179242
O       9.77565      5.61152     12.95918        -0.065076      0.360049     -0.221391
O       9.81126      5.80118      4.48867        -0.111425     -0.252613      0.512975
O       9.54122      5.93659      8.68909         0.820792     -0.257914      0.380375
O       9.64906      9.63546      0.50667        -0.500487      0.172499      0.162140
O       9.81810      9.73935     13.00343        -0.256238      0.283718     -0.756777
O       9.59294      9.79704      4.49032         0.262136      0.282539     -0.015261
O       9.59464      9.43956      8.86267         0.525702      0.483447      0.307363
O       3.88715      1.82691      2.66270        -0.240056     -0.029970     -0.159268
O       3.86505      1.81338     15.06915        -0.251466      0.180615     -0.475939
O       3.86495     13.72671      2.56222         0.830235      0.159815      0.242058
O       3.87545     13.83567     14.88175         0.379254     -0.844647      0.205769
O       0.00655      1.99241      2.47208        -0.623835     -0.332444      0.174723
O       0.01404      1.87874     15.01065         0.803453      0.271917     -0.136669
O       0.00082     13.54245      2.59663        -0.452594     -0.054993     -0.049215
O      15.59970     13.59113     15.13799         0.585524      0.228215     -0.208213
O       3.94498      1.94112      6.70079        -0.645083     -0.249864      0.363596
O       3.95085     13.58257      6.66151        -1.183396     -0.047995      0.527411
O       0.03929      1.96415      6.72232         0.028561      0.042368      0.070640
O      15.59320     13.41582      6.64065        -0.395869      0.579484     -0.016332
O       3.84151      1.92325     10.75825        -0.091463     -0.303751     -0.060601
O       3.81807     13.56416     10.76067         0.461538      0.198774      0.530117
O       0.01304      1.96245     10.64275        -1.096267      0.066066      0.313210
O      15.55182     13.54264     10.75320        -0.421013      0.164107      0.337588
O       3.86090      5.75190      2.61679        -0.041301      0.018075      0.218276
O       3.76875      5.94062     15.10913        -0.016634     -0.445630     -0.466500
O       0.00556      5.83685      2.50613        -0.684302     -0.081084      0.358325
O      15.55264      5.82492     15.03386         0.063428     -0.194953      0.167421
O       3.94639      5.90919      6.68213        -0.978157      0.010325      0.309212
O       0.08046      5.83290      6.63565        -0.930326     -0.137361      0.187494
O       3.92238      5.87992     10.82559        -1.916495      0.513899     -0.031389
O      15.48553      5.77862     10.79149         1.239558     -0.053341      0.128332
O       3.90504      9.60953      2.59593        -0.097777      0.463232     -0.096265
O       3.89797      9.73308     14.94288        -1.136138     -0.034220      0.250321
O      15.58901      9.74161      2.38961         0.381193      0.300526      0.615975
O      15.59385      9.97455     14.83846         0.417775     -0.327228      0.421598
O       3.94839      9.82057      6.58966        -0.436027     -0.495814      0.495065
O      15.56136      9.84956      6.52004         0.669701     -0.338076      0.388330
O       3.90025      9.56665     10.79545        -0.433678      0.051954     -0.015142
O      15.53734      9.77250     10.93882         0.277298     -0.495771     -0.699318
O       7.84884      2.05692      2.41704        -0.546880     -0.180808      0.150339
O       7.74157      2.01681     15.01685        -0.732612     -0.218758      0.207927
O       7.72116     13.68346      2.51979         0.688057     -0.285809      0.131688
O       7.83097     13.63713     15.03577        -0.948606     -0.736353      0.020059
O       7.80747      2.00580      6.68827         0.612881     -0.308960      0.069441
O       7.72063     13.64066      6.98533         1.425885      0.013870     -0.950837
O       7.76580      1.96777     10.93023         0.204136     -0.133723     -0.381465
O       7.71394     13.55374     10.73448         0.269689     -0.027224      0.265881
O       7.68364      5.92571      2.48580         1.584788     -1.038875      0.245383
O       7.74064      5.80850     14.96772        -0.084376     -0.024526     -0.277954
O       7.81863      5.77934      6.50399        -0.277727      0.012222      0.324381
O       7.79391      5.81645     10.90873         0.505994     -0.096335      0.185488
O       7.62043      9.61119      2.54140         1.601343      0.566994     -0.089645
O       7.76707      9.66873     14.90108         0.612334      0.528850      0.558790
O       7.76690      9.78427      6.71174         0.590450     -0.203870     -0.294861
O       7.78166      9.69188     10.85982        -0.068106      0.243698      1.049019
O      11.75358      1.83947      2.50498         0.259608      0.398655     -0.054916
O      11.69932      1.84697     14.99045         0.168015      0.028710      0.089634
O      11.65252     13.69176      2.61583        -0.224524      0.170525     -0.487474
O      11.69541     13.81174     15.00086         0.009536     -0.426206      0.340707
O      11.71026      1.82519      6.61478        -0.060331      0.186781      0.036433
O      11.70989     13.62535      6.57980        -0.496098      0.374772      0.091258
O      11.66032      1.82896     10.86156         0.552462      0.251507     -0.530061
O      11.72387     13.76586     10.89554         0.025424     -0.415249     -0.203902
O      11.75051      5.97415      2.55915        -0.391277     -0.476773     -0.337603
O      11.68117      5.90333     14.98867        -0.130041     -0.707719      0.085628
O      11.67659      5.80769      6.65304         0.263128     -0.045808      0.243120
O      11.66701      5.86275     10.79657         0.276719     -0.493784     -0.441608
O      11.61053      9.61763      2.32471         0.070528      0.414120      0.847986
O      11.69485      9.84496     15.08230        -0.598494     -0.500352      0.216087
O      11.62893      9.74248      6.58868         0.086529     -0.081316     -0.043911
O      11.68922      9.70432     10.87716         0.159400     -0.362714     -0.319554
O       1.89515      3.80507      2.59176         0.291703      0.054742     -0.196691
O       1.91915      3.82671     14.96336         0.092448     -0.026395      0.491232
O       1.76179     15.48508      2.63231         0.707743      1.050841     -0.523663
O       1.94241     15.59582     15.02878        -0.508611      0.072786     -0.282256
O      13.65494      3.93908      2.44796        -0.051841     -0.702776      0.098302
O      13.67495      3.84708     14.91348        -0.038103      0.258441      0.318695
O      13.71075      0.01300      2.57085        -0.079383     -0.229154     -0.009790
O      13.71110      0.03293     15.10138         0.014476     -0.768198      0.043047
O       2.04031      3.88236      6.77882        -0.243930      0.748868     -0.582983
O       1.97282     15.59901      6.80684        -0.052073     -0.211814      0.002931
O      13.71386      3.85205      6.64337        -0.293149      0.466847      0.441953
O      13.87872     15.57853      6.64868        -0.881403     -0.674299     -0.031339
O       2.06365      3.92678     10.69764        -0.868415      0.525528      0.051790
O       1.92166     15.56572     10.70178        -0.138906      0.555688      0.148700
O      13.56033      3.87734     10.77942        -0.127169     -0.954146     -0.251015
O      13.70568     15.59308     10.78917        -0.008506      0.099940     -0.363783
O       2.00093      7.75244      2.55633        -0.332168      0.874623      0.170876
O       1.81496      7.78522     14.97776         0.186281      1.162639      0.083881
O      13.69000      7.80122      2.49660        -0.023494      0.054002      0.091959
O      13.61395      7.79282     14.77930         0.145399      0.088172      0.900031
O       1.95286      7.77992      6.51968         0.163871      1.267727      0.647051
O      13.66400      7.81281      6.67041         0.011980      0.110136     -0.125239
O       1.85066      7.77361     11.06658         0.411072     -0.010802     -1.582248
O      13.64607      7.71267     10.79178        -0.148815      0.642033     -0.216946
O       2.09049     11.70395      2.75904        -0.413487     -0.210717     -0.839007
O       2.07686     11.72625     14.94198        -0.003170      0.049533     -0.075300
O      13.60191     11.71645      2.55884        -0.341603     -0.292618     -0.116924
O      13.51268     11.78416     14.90927         0.098549     -0.443703      0.444907
O       1.97224     11.72988      6.70558         0.356772     -0.781537      0.026918
O      13.55235     11.63292      6.78076         0.245430      0.309353     -0.889084
O       1.94096     11.61661     10.82459         0.199203     -0.026367      0.171122
O      13.55020     11.60296     10.85370         0.235833      1.006783     -0.279044
O       5.81001      3.83536      2.66997         0.003807      0.077408     -0.368881
O       5.67370      3.86533     14.91408         0.086675     -0.330371      0.590674
O       5.91141     15.60797      2.59240        -0.269283     -0.568760      0.058255
O       5.94976     15.56228     15.05862        -0.399718      0.254878     -0.129156
O       5.77985      3.85692      6.65694         0.114590      1.595420      0.165225
O       5.82154      0.00452      6.81135         0.049279     -0.501906      0.295851
O       5.75896      3.86919     10.95772         0.313840      0.053064      0.243382
O       5.72465      0.01431     10.72016         0.234324     -1.680754      0.020735
O       5.81030      7.65571      2.48422        -0.634220      1.700006      0.391771
O       5.73387      7.77289     14.94952         0.309502     -0.518748      0.339555
O       5.90008      7.77898      6.69574        -0.369557      0.104714      0.040523
O       5.99790      7.70360     10.93966        -0.636838      1.316894      0.009340
O       5.75189     11.67397      2.40441         0.151693      0.041652      0.693761
O       5.76282     11.67953     14.91707         0.175452      0.511456      0.010089
O       5.91019     11.64628      6.75534        -0.334326     -0.432790     -0.184465
O       5.75655     11.58640     10.85724         0.091136      0.589415      0.451090
O       9.86084      3.90822      2.47426        -0.094668      0.330186     -0.108175
O       9.73286      3.79901     15.14033        -0.030853      1.445241     -0.488375
O       9.67091      0.04851      2.60344         0.367508     -1.042746     -0.319205
O       9.64399     15.55523     14.93511         0.045376      0.113166      0.655561
O       9.74478      3.85537      6.60746         0.593989      0.474969      0.121666
O       9.67464     15.59552      6.45683         0.117480     -0.490512      0.471091
O       9.78336      3.87454     10.78846         0.006284     -0.161779     -0.008577
O       9.64057     15.57246     10.85668        -0.046740      0.168265     -0.230539
O       9.68331      7.68069      2.63710        -0.071303      1.885492     -0.159049
O       9.74066      7.77200     15.12071         0.111405      0.021873     -0.860497
O       9.81156      7.84086      6.57155        -0.444839     -0.350888     -0.157473
O       9.71409      7.68770     11.01550        -0.023977      0.150437     -0.079373
O       9.58957     11.73023      2.35042         0.369470     -0.412491      0.587428
O       9.80443     11.70543     15.14820        -0.304084     -0.432147     -0.200112
O       9.73138     11.75983      6.75029        -0.329896     -1.229653     -0.301237
O       9.81970     11.66531     10.72002        -0.294718      0.179242      0.742855
