  # total energy = -7882.51195179 
CRSYTAL
PRIMVEC
    15.6080000000000005    0.0000000000000000    0.0000000000000000
     0.0000000000000000   15.6080000000000005    0.0000000000000000
     0.0000000000000000    0.0000000000000000   16.6239999999999988
PRESSURE
-0.244182 -0.287814 0.227006 -0.156674 0.302123 -0.066478
PRIMCOORD
320 1
Pb       3.93230      3.80284      4.10235         0.230972      0.576626      0.226715
Pb       4.01051      3.96203      0.04563        -0.147563     -0.435151     -0.342355
Pb       3.90994     15.57840      4.00023        -0.055935     -0.038873      0.061888
Pb       3.87626     15.57098     16.55221        -0.073349     -0.032745     -0.145032
Pb       0.03419      3.87800      4.08638         0.043335      0.059984      1.060564
Pb      15.59457      3.79720     16.60526        -0.069605      0.304864     -0.150198
Pb      15.58093     15.48881      4.02087        -0.158818     -0.024289      0.533985
Pb      15.58262     15.59066     16.56246        -0.032210     -0.375641     -0.033686
Pb       3.79939      3.78404      8.23782         0.531979      0.231439      0.319274
Pb       3.84554     15.56501      8.14561         0.083034     -0.529083      0.492035
Pb      15.48034      3.83874      8.26666         0.209312      0.454620      0.209614
Pb      15.53377     15.54973      8.21388         0.301042     -0.393366      0.730121
Pb       3.77025      3.84960     12.47376         0.444712      0.186663      0.243291
Pb       3.87278     15.56734     12.53792         0.320707     -0.168179     -0.224607
Pb       0.06712      4.03462     12.54797        -0.043051     -0.587793     -0.281138
Pb       0.07234      0.11785     12.63419        -0.274596     -0.097420     -0.306471
Pb       3.86216      7.86412      4.02662         0.060801     -0.514637      0.692258
Pb       3.90084      7.77154     16.51903        -0.415471      0.088460      0.341971
Pb      15.53213      7.84517      4.13472         0.371424     -0.291855      0.131810
Pb      15.57277      7.74928     16.51255         0.621982     -0.233045      0.827416
Pb       3.79307      7.73418      8.30398         0.250302      0.210010     -0.040893
Pb      15.34445      7.70622      8.53726         0.565032      0.024878     -0.634247
Pb       3.94026      7.75639     12.36715        -0.425638      0.594742     -0.119776
Pb      15.50888      7.81820     12.48733         0.276423      0.584514      0.250549
Pb       3.83975     11.72261      4.01493         0.155937     -0.303464      0.623621
Pb       3.81778     11.74152     16.60729         0.309990     -0.027273     -0.394283
Pb      15.52002     11.63222      4.01592         0.432259      0.377637      0.462261
Pb      15.55474     11.71124     16.54322         0.174989      0.004534      0.061808
Pb       3.85102     11.78686      8.29669        -0.170416     -0.692879     -0.274064
Pb       0.02786     11.68298      8.23729         0.007554     -0.331859      0.314137
Pb       3.88111     11.63313     12.36030        -0.145341     -0.330162      0.013946
Pb       0.08519     11.72377     12.46430        -0.482525     -0.316555      0.010381
Pb       7.77379      3.73440      4.14658         0.234905      0.720730     -0.357777
Pb       7.80031      3.98061     16.54756         0.091452     -0.322272      0.987765
Pb       7.73555     15.55473      4.13904         0.369843     -0.211941     -0.406550
Pb       7.79392      0.12863     16.60223         0.232411     -0.680108      0.231475
Pb       7.75706      3.82317      8.36981        -0.210819      0.091516     -0.414216
Pb       7.83733      0.02973      8.19007         0.026021     -0.062027      0.222153
Pb       7.83106      3.72922     12.39998        -0.511668      0.603702      0.726902
Pb       7.70432     15.55499     12.39635         0.198164      0.107697      0.346542
Pb       7.84326      7.83218      4.17653         0.375679     -0.599630     -0.140454
Pb       7.61374      7.72804     16.59103         0.608282      0.341158      0.267964
Pb       7.80720      7.71808      8.19166         0.153404      0.010731      0.104817
Pb       7.70380      7.77276     12.41249        -0.013017     -0.176863      0.492383
Pb       7.83841     11.72493      4.16055         0.153417     -0.191343      0.348202
Pb       7.69666     11.81279     16.54583        -0.469086     -0.374229      0.280009
Pb       7.84570     11.74776      8.29584         0.150809     -0.430713     -0.604983
Pb       7.76953     11.68667     12.38996         0.105967     -0.175593      0.407473
Pb      11.83693      3.77890      4.23328        -0.382368      0.530085      0.288130
Pb      11.70013      4.00855      0.16713         0.134802     -0.291180     -0.471654
Pb      11.61504     15.45271      4.08999         0.578274     -0.027437      0.324586
Pb      11.61981     15.56217     16.53900         0.537190     -0.009154      0.164052
Pb      11.72747      4.04487      8.42894         0.007890     -0.035697     -0.408977
Pb      11.73261      0.14657      8.34340        -0.006203     -0.666287     -0.050452
Pb      11.75464      3.85107     12.44656        -0.145609      0.284940      0.397413
Pb      11.52529      0.07792     12.39831         0.612709     -0.611154      0.730797
Pb      11.77061      7.87707      4.23550        -0.517348     -0.307514     -0.260724
Pb      11.64387      7.80865     16.60236         0.254892     -0.135754      0.052238
Pb      11.69571      7.75378      8.36600        -0.496084      0.301092     -0.036235
Pb      11.54196      7.99822     12.53437         0.367661     -0.608076      0.083432
Pb      11.88578     11.47463      4.16021        -0.904187      0.533200      0.328066
Pb      11.57241     11.65439     16.52773         0.952986     -0.033263      0.239667
Pb      11.78148     11.87657      8.51668         0.077007     -0.291193     -0.573702
Pb      11.59503     11.75390     12.43453         0.566841     -0.021148     -0.157827
Ti       1.97970      2.04230      2.21509        -0.258936     -1.348570     -0.164754
Ti       1.99423      2.03905     14.66657         0.852420     -0.859067     -0.073389
Ti       1.93448     13.67413      2.17736        -0.553252     -0.343807     -0.750488
Ti       1.90686     13.65467     14.58034        -0.031773      0.203276      1.234871
Ti      13.66601      1.92107      2.32784         0.926831     -1.014372     -0.600153
Ti      13.76230      1.94588     14.62543        -1.561969     -0.955306     -0.665777
Ti      13.62346     13.54216      2.13512         0.364902      1.496202      0.095546
Ti      13.60892     13.58770     14.66887         0.262998      0.442727      0.291651
Ti       1.89808      1.77756      6.37423         0.099009      0.414629     -1.156320
Ti       1.87582     13.53193      6.23852         0.173298     -0.005885      0.105515
Ti      13.64382      1.88086      6.42049        -0.180647      0.298986      0.021468
Ti      13.64100     13.57683      6.41299        -0.363403      0.201646     -0.262009
Ti       2.02542      1.83262     10.61482        -1.244537      1.286163     -1.187723
Ti       1.91129     13.64780     10.52353         0.526132     -0.077051      0.168110
Ti      13.74006      2.01124     10.57836        -0.335827     -0.297628      0.965040
Ti      13.66184     13.79803     10.63368        -0.175482     -1.237684     -0.073917
Ti       1.88561      5.88264      2.22786         0.482334      0.536181     -0.152678
Ti       2.01492      5.91386     14.52590        -0.796791     -0.875922      0.443098
Ti      13.58882      5.83172      2.30205         0.448514      0.174842      0.028179
Ti      13.67844      5.74308     14.69592        -0.205815      0.666945     -0.617994
Ti       1.93696      5.68472      6.36192        -0.495523      1.403315     -0.605981
Ti      13.62326      5.89509      6.35133         0.422904     -0.630228      0.454255
Ti       1.83920      5.83519     10.58692         0.555602      0.094056      0.722050
Ti      13.58055      5.90650     10.68369        -0.112710      0.168944     -0.619170
Ti       1.98635      9.74147      2.22685        -0.945154      0.085871     -0.735656
Ti       1.96002      9.77788     14.73515        -0.561481     -0.317029     -0.874034
Ti      13.65839      9.69355      2.19816        -0.348393     -0.487965     -0.982302
Ti      13.66816      9.62172     14.80022        -0.036014      1.063386     -1.407848
Ti       1.99938      9.60912      6.37698        -0.153345      0.059428      1.099884
Ti      13.71934      9.71927      6.47664        -0.228992      0.544732      0.796565
Ti       1.89791      9.74657     10.46720         0.616947      0.073015     -0.089247
Ti      13.72381      9.85306     10.59520        -0.928979     -0.291030     -0.155831
Ti       5.91048      1.95758      2.14753         0.178367     -0.135818     -0.158888
Ti       5.91443      1.81670     14.65435        -1.059562      0.442633      0.149796
Ti       5.92355     13.54125      2.30708        -0.008129      0.504712     -1.438905
Ti       5.83136     13.57219     14.61763        -0.371949      0.232116      0.146902
Ti       5.84265      1.78300      6.25171         0.287868      1.158375      0.771715
Ti       5.90369     13.49378      6.35690        -0.385441     -0.344715     -1.452642
Ti       5.77251      1.96966     10.51927         0.630040     -0.438362     -0.282191
Ti       5.83567     13.59495     10.50989        -0.315147      0.738985      0.740129
Ti       5.79873      5.89701      2.17412         0.644837     -1.174669      0.793733
Ti       5.85203      5.75420     14.75568         0.112598      0.043768     -1.476572
Ti       5.77861      5.78311      6.27743         0.326874     -0.302321      0.084413
Ti       5.71851      5.78883     10.59975         0.506399     -0.260734     -1.962501
Ti       6.02596      9.71282      2.26281        -0.751263      0.217221     -0.427062
Ti       5.85302      9.67751     14.60661        -0.485589      1.024267      0.111416
Ti       5.88417      9.60138      6.29479        -0.038589      0.833780      0.937265
Ti       5.88931      9.74611     10.43980        -1.084742     -0.828030      0.623465
Ti       9.90265      1.92805      2.24575        -1.568527     -0.751797     -0.689439
Ti       9.84486      1.92479     14.77023         0.368610     -0.602715     -0.511858
Ti       9.82673     13.53554      2.16404        -0.461591      0.495348      1.076989
Ti       9.70186     13.56230     14.66506         0.464717      1.201338     -0.747928
Ti       9.80581      1.96815      6.42199        -0.250227     -0.181547      1.909556
Ti       9.79874     13.63014      6.34376         0.336251      0.047569      1.965062
Ti       9.75955      1.94920     10.54868        -0.062526      0.090778     -1.141287
Ti       9.66734     13.67761     10.47461         1.015409     -0.171713     -0.098848
Ti       9.77718      5.79127      2.26858        -0.958374      0.370871     -0.106299
Ti       9.79016      5.81411     14.83001         0.004631      0.404270     -1.494015
Ti       9.71650      5.78282      6.34547         0.162389      0.629924     -0.253098
Ti       9.64150      5.81215     10.73547         0.517049      0.889656     -0.561146
Ti       9.81632      9.67782      2.06605         0.147047     -0.062270      1.575760
Ti       9.67657      9.70593     14.70517        -0.033786     -0.456057     -0.172933
Ti       9.87595      9.76394      6.42792         0.020925     -0.105923      0.113336
Ti       9.71325      9.73015     10.50586         0.458760     -0.245292      0.499755
O       1.92426      1.96021      0.41711        -0.122645      0.442864      0.291512
O       2.03096      1.91013     12.87521        -0.186985     -0.278711     -0.072303
O       1.90415     13.75282      0.35493         0.258799     -0.617336      0.660393
O       1.91374     13.61388     12.82421         0.180420      0.201345     -0.671418
O      13.82907      1.91709      0.54799        -0.003664      0.283426      0.148726
O      13.69921      2.05506     12.80393         0.028185     -0.301583      1.205557
O      13.69154     13.70165      0.37242        -0.150004     -0.313466      0.153752
O      13.63337     13.58971     12.92682         0.199302     -0.010778     -1.385135
O       1.93871      1.79179      4.57443         0.337255      0.375852      0.724099
O       1.74033     13.51894      4.45521         0.749838      0.051416      0.532284
O      13.56651      1.90391      4.66634         0.151614     -0.001680     -0.591523
O      13.70212     13.57308      4.66288        -0.234772     -0.102208     -0.662868
O       2.05822      1.92643      8.78602        -0.236393     -0.425955      0.048306
O       2.10123     13.83218      8.78415        -0.146150     -0.455166     -0.753593
O      13.67543      1.86972      8.82019        -0.129767      0.205058     -0.873149
O      13.61222     13.66806      8.84641        -0.086665     -0.141818     -0.296960
O       1.90708      5.94427      0.43906         0.006943     -0.735587      0.861141
O       2.06244      5.90521     12.72077        -0.315109     -0.145433      1.084631
O      13.61338      5.66908      0.54189         0.384662     -0.000996     -0.787781
O      13.58991      5.87105     12.90837         0.405226     -0.437235      1.004146
O       1.95545      5.74144      4.56983         0.157841      0.202919      0.738999
O      13.56801      5.94603      4.56408         0.054866     -0.201229      0.560798
O       1.84628      5.61013      8.87846        -0.140285      0.147598     -1.549296
O      13.72457      5.78442      8.80245        -0.425831      0.446101      0.588394
O       1.88438      9.76039      0.43484         0.439851     -0.091479      0.285847
O       1.82006      9.74908     12.95396         0.242145     -0.022319      0.075601
O      13.61419      9.70038      0.44198         0.054635     -0.049125     -0.764680
O      13.79957      9.72370     12.98896        -0.346100     -0.292106      0.812032
O       1.99862      9.71292      4.60422        -0.302458     -0.024274     -0.312042
O      13.58096      9.73784      4.68251         0.081790     -0.315635     -1.183525
O       1.93910      9.87836      8.68316        -0.023896     -0.453845      0.356564
O      13.79827      9.77340      8.78672        -0.197026      0.029584      0.195533
O       5.85927      1.87259      0.35362         0.102062      0.074864      0.708231
O       5.82761      1.91359     12.87546         0.069674     -0.199848      0.029352
O       5.88743     13.48329      0.45985        -0.053698     -0.152744      0.437768
O       5.83419     13.60262     12.84814         0.018866      0.133022      0.011653
O       5.85985      1.86910      4.45677         0.088800      0.052544      0.303128
O       5.90952     13.51217      4.47398        -0.026749      0.334325      0.731452
O       5.87981      1.92356      8.72424        -0.249082      0.141429      0.461323
O       5.96502     13.64862      8.75224        -0.106969     -0.296578     -0.907223
O       5.75022      6.00221      0.34982         0.211051     -0.736332     -0.467956
O       5.88708      5.77250     12.96739        -0.472828      0.285082      0.447431
O       5.77660      5.85083      4.48595         0.059531      0.030015      0.517584
O       5.88668      5.63189      8.76326         0.009390      0.482971      1.002765
O       5.98416      9.88258      0.48131        -0.214586     -0.399605      0.077253
O       5.75578      9.58046     12.84203         0.198291      0.502742      0.290965
O       5.87807      9.61204      4.51328        -0.086566     -0.306749     -0.463334
O       5.80812      9.77732      8.70524         0.339414     -0.123604     -0.114843
O       9.90717      1.73761      0.43409        -0.430335      0.547632      0.714210
O       9.84715      1.88260     12.97172        -0.437807      0.441784      0.301207
O       9.82490     13.81501      0.44780        -0.137523     -0.787435     -0.888825
O       9.78679     13.55453     12.87914        -0.304466     -0.108499      0.375262
O       9.79819      2.09555      4.72500         0.034254     -0.302531     -2.530053
O       9.71161     13.61909      4.63257         0.263531     -0.072959     -1.877516
O       9.76951      2.02906      8.73621         0.086085     -0.383826      0.903860
O       9.58706     13.69904      8.66638         0.280787     -0.162740      1.055723
O       9.73079      5.62542      0.43761         0.343753      0.825107      0.872641
O       9.77599      5.71056     13.03282        -0.206670     -0.141761      0.470969
O       9.73050      5.91174      4.57222         0.232350     -0.275232     -0.159175
O       9.81036      5.95380      8.94620        -0.194032     -0.451645      0.225432
O       9.92111      9.62856      0.33749        -0.638950      0.370715     -0.877989
O       9.65891      9.82877     12.92890         0.282766     -0.069797     -0.164339
O      10.01006      9.75279      4.63229        -0.385937     -0.073548      0.151539
O       9.79362      9.63497      8.77294        -0.163803      0.074713     -0.515624
O       3.92008      1.94789      2.53851        -0.262682     -0.400767     -0.249388
O       3.95967      1.97206     15.01958        -0.479745     -0.078545      0.007086
O       3.91256     13.56052      2.48229        -0.358536     -0.060653      0.077394
O       3.84287     13.72356     14.96826         0.293928     -0.534055      0.001018
O       0.03071      1.96488      2.69385         0.225826     -0.184709     -0.780919
O       0.03768      1.99602     14.90631        -0.253334      0.080672      0.347381
O      15.53992     13.64314      2.45778         0.309630     -0.357896     -0.041859
O       0.01456     13.58311     14.93415         0.450912      0.077981      0.097209
O       3.91300      1.81908      6.68971        -0.103818     -0.064345     -0.612863
O       3.94368     13.59737      6.61978        -0.135038      0.224522     -0.150045
O      15.59944      1.86692      6.79898         0.461809      0.320243     -0.532370
O      15.55874     13.61336      6.67554         1.111623     -0.338047      0.323497
O       3.86985      1.93499     10.85428         1.204568     -0.150662      0.058728
O       3.97481     13.53494     10.84709        -0.073538      0.480347     -0.120466
O      15.55772      1.91046     10.90413         0.636626     -0.125599     -0.110097
O       0.06344     13.64556     10.68380        -1.173718      0.275815      0.679768
O       3.90331      5.91777      2.46367        -0.967371     -0.208603      0.030581
O       3.86329      5.73674     14.99555         0.752326      0.305259      0.068587
O      15.58574      5.71734      2.65065         0.446266      0.552721     -0.555678
O       0.04563      5.92226     14.83760        -0.724751     -1.136737      0.243266
O       3.87849      5.91794      6.76003        -0.168083     -0.676574     -0.383291
O      15.56478      5.84362      6.68943         0.146796     -0.342163     -0.141488
O       3.80236      5.83177     10.75086         0.529811      0.016827      0.355281
O      15.53772      5.88683     11.03306         0.569380     -0.611128     -0.371998
O       3.83048      9.66907      2.51429         0.808828      0.397803     -0.283888
O       3.82790      9.77402     14.99402         1.129992     -0.341916      0.304536
O      15.49803      9.68620      2.56802         0.870059      0.205083      0.118952
O      15.60800      9.67565     15.16151        -0.147871      0.079982     -0.302310
O       3.96629      9.70224      6.69214        -0.591912     -0.230446     -0.166546
O       0.02009      9.72490      6.73443         0.177821      0.042799     -0.400957
O       3.79859      9.70381     10.82209         0.963422      0.264203      0.169994
O      15.58147      9.83199     10.93379         0.584471     -0.050371     -0.297387
O       7.82786      1.98369      2.46949        -0.207756      0.086092      0.188331
O       7.76819      1.81215     14.89557         1.096282      0.454836      0.498002
O       7.85103     13.48939      2.46468        -0.126965      0.040770      0.304404
O       7.79319     13.61744     14.83582         0.115034     -0.330285      0.596872
O       7.84671      1.90546      6.70966        -1.137438      0.221192     -0.395076
O       7.82283     13.58212      6.53498        -0.152115      0.051409      0.621884
O       7.83057      2.01130     10.77813        -0.831140     -0.135047      0.310741
O       7.82344     13.57992     10.95303        -0.484329      0.056866     -0.411216
O       7.77485      5.79480      2.48528         0.564658     -0.209379      0.081616
O       7.82616      5.91051     15.08061        -0.768637     -0.605701      0.152014
O       7.84907      5.90620      6.56989        -0.867942     -0.293962      0.418528
O       7.74295      5.79009     10.98854         0.366694     -0.168206     -0.294446
O       7.88719      9.76725      2.63304         0.120687     -0.317220     -0.500682
O       7.76349      9.76494     14.94205        -0.216448     -0.020871      0.198395
O       7.82702      9.72510      6.59363         0.275157     -0.040411      0.206355
O       7.75540      9.65918     10.80870         0.181449      0.182151     -0.084290
O      11.74661      1.80895      2.53310        -0.098711      0.456668      0.309192
O      11.82578      1.78758     14.99687        -0.888608      0.357002     -0.143687
O      11.73801     13.62187      2.58455        -0.629600      0.194768     -0.243074
O      11.70143     13.64690     14.95294        -0.431536     -0.268582      0.226007
O      11.75211      1.87015      6.77224        -0.168009      0.549666     -0.071489
O      11.73659     13.63577      6.71058        -0.375121      0.183636      0.212740
O      11.62154      1.90515     10.94292         0.451301      0.311935     -0.619862
O      11.63953     13.59243     10.89150        -0.368346      0.172183     -0.530022
O      11.71530      5.85145      2.55562        -0.535495     -0.404254     -0.046114
O      11.69760      5.81301     15.10436         0.302211     -0.086841      0.091489
O      11.66900      5.83190      6.76839         0.256156     -0.037958     -0.101339
O      11.76727      5.96284     11.12636        -1.223690     -0.361621     -0.992417
O      11.71741      9.62945      2.45647        -0.086157      0.154101      0.495468
O      11.70081      9.59527     14.96104         0.322719      0.456745      0.099591
O      11.82306      9.68943      6.79068        -1.225640      0.160593      0.140039
O      11.73800      9.65936     10.90335        -0.870621      0.260940     -0.202703
O       2.01018      3.87941      2.63274        -0.198021      0.161162     -0.817140
O       1.90491      3.88485     14.77467         0.035725      0.943565      0.617758
O       1.98668     15.52003      2.45957        -0.028546      0.890083      0.283401
O       1.94078      0.06634     14.85562        -0.228010     -0.915411      0.238035
O      13.68805      3.85405      2.72068        -0.624846     -0.357182     -0.426034
O      13.53327      3.82551     15.04893         0.896134      0.585552     -0.036360
O      13.65452     15.51960      2.62074        -0.052576      0.609976     -0.178216
O      13.84558     15.55382     14.86273        -0.119702      0.853968      0.247554
O       1.99940      3.81336      6.66427        -0.224942     -0.317884     -0.174212
O       1.87650     15.43351      6.50822         0.452841      1.353239      0.639519
O      13.59792      3.88640      6.73252         0.125696     -0.012424     -0.163772
O      13.71629     15.55590      6.75696        -0.447034      0.350972     -0.088446
O       1.90111      3.77939     11.06058        -0.182693      0.875907     -0.626456
O       2.01841      0.00720     10.95676        -0.141145     -0.821629      0.075906
O      13.52333      3.93862     10.77820         0.291148     -0.651470      0.217001
O      13.51055     15.60461     10.86969         0.515113      0.421485      0.201445
O       1.85958      7.82861      2.63421        -0.143320     -0.804151     -0.328097
O       1.94971      7.67460     14.98748         0.383665      1.605161      0.018298
O      13.63773      7.74656      2.50663         0.290838      0.165499      0.303601
O      13.73489      7.67852     15.10477        -0.742974      0.417299     -0.261532
O       1.94114      7.73467      6.78400         0.059933      0.128196     -0.325625
O      13.58696      7.79075      6.81023         0.510876     -0.755886     -0.272059
O       1.89888      7.86308     10.73752        -0.369831     -1.086352     -0.067891
O      13.76159      7.82175     10.83805        -0.039955      0.100216     -0.099397
O       1.80344     11.69071      2.51695         0.666704     -0.498275     -0.279846
O       1.95185     11.66077     14.86270        -0.129025      0.881328      0.683470
O      13.55023     11.64719      2.48369         0.531412     -0.084848     -0.035959
O      13.69608     11.68745     15.05440        -0.349773     -0.793573      0.041667
O       2.01777     11.68428      6.73876        -0.323002      0.233038     -0.394927
O      13.62364     11.63994      6.72247         0.196372      0.593120      0.315984
O       1.95716     11.71322     10.73267         0.012465      0.262331      0.498884
O      13.54857     11.69930     10.93555         0.375058      0.254514     -0.237345
O       5.77338      3.92618      2.39955         0.003478     -1.015997      0.095908
O       5.91747      3.86548     15.08746        -0.208777      0.272967     -0.228595
O       5.91807     15.54717      2.46557        -0.169843     -0.027630      0.209709
O       5.84758     15.48307     15.03797        -0.052347      0.868278     -0.266924
O       5.75397      3.85321      6.49862         0.386287     -0.159074      0.151145
O       5.96146     15.53102      6.52851        -0.320320      0.192669      0.182286
O       5.70131      3.90272     10.93226         0.602436     -1.224231     -0.153762
O       5.90622     15.59698     10.91945        -0.387642     -0.049501     -0.551656
O       5.91075      7.71005      2.37654         0.121448      2.173315      0.618989
O       5.81496      7.83883     14.99591        -0.129727     -0.731094      0.160068
O       5.89828      7.71786      6.69543        -0.169519      0.127166     -0.113603
O       5.76776      7.71290     10.84412         0.257258      0.504958     -0.188812
O       5.86804     11.57750      2.61566        -0.137714      0.489334     -0.016356
O       5.81097     11.69012     14.86723        -0.032607     -0.353473      0.453335
O       5.90904     11.59989      6.53697        -0.055131      0.890267      0.453432
O       5.87242     11.61665     10.87482         0.073239      0.511161     -0.289887
O       9.85676      3.84667      2.63579         0.016976     -0.294145     -0.342039
O       9.74890      3.81451     15.30842         0.202280     -0.536733     -1.519934
O       9.62123     15.58622      2.61685         0.773318      0.151434      0.200497
O       9.75302     15.54536     15.05908        -0.096574      0.159438     -0.424538
O       9.65356      3.90397      6.80778         0.682177      0.516670     -0.273061
O       9.81266      0.03340      6.73870        -0.273900     -0.571102     -0.304518
O       9.70758      3.88064     10.92701         0.584955     -0.017968     -0.144017
O       9.66950     15.57724     10.86282         0.022368      0.161787     -0.259915
O       9.74673      7.75688      2.36078        -0.080069     -0.039011      0.512028
O       9.70173      7.78549     14.94380         0.225674     -0.413574      0.414505
O       9.76957      7.85708      6.73484         0.203498     -0.862160     -0.053871
O       9.65112      7.77438     11.08206         0.350828      0.109611     -0.411560
O       9.86683     11.63872      2.33978        -0.137810      0.086323      0.065178
O       9.78247     11.63170     15.07049        -0.169167      0.822082     -0.166166
O       9.84929     11.71453      6.77992        -0.291913     -0.281407      0.012202
O       9.70978     11.64932     10.66551        -0.086887      0.237806      0.410016
