  # total energy = -7877.94350917 
CRSYTAL
PRIMVEC
    15.6080000000000005    0.0000000000000000    0.0000000000000000
     0.0000000000000000   15.6080000000000005    0.0000000000000000
     0.0000000000000000    0.0000000000000000   16.6239999999999988
PRESSURE
-0.11551 -0.727413 -0.286121 -0.044393 -0.30507 0.056947
PRIMCOORD
320 1
Pb       4.01746      4.00220      4.15909        -0.269059     -0.778037     -0.181535
Pb       4.09086      4.10354      0.15212        -0.453713     -0.627812     -0.276515
Pb       3.86586      0.03527      4.01157         0.649132     -0.096316      0.037705
Pb       3.76677     15.57350     16.61863        -0.040453      0.136779     -0.165974
Pb       0.09920      3.83470      4.17590        -0.194719      0.054239     -0.404750
Pb      15.46175      3.80808     16.61849         0.415205      0.611252     -0.028019
Pb      15.54548     15.55631      4.00510         0.146123      0.287248     -0.074803
Pb      15.46953     15.55904     16.56510         1.221813      0.102451      0.530822
Pb       3.64194      3.77627      8.35288         0.583042     -0.267377     -0.243378
Pb       3.89273      0.08269      8.30572        -0.332885     -0.282107     -0.115062
Pb      15.54782      3.78066      8.28413         0.142091      0.088237     -0.197650
Pb       0.15186     15.58120      8.20305        -0.255429     -0.186330      0.225938
Pb       3.91754      3.94540     12.37451        -0.095940      0.031047      0.088495
Pb       3.83603     15.39471     12.27639         0.280277      0.522551      0.272312
Pb      15.58733      3.76096     12.42841         0.166895      0.689139      0.432963
Pb      15.55121      0.32109     12.60611         0.297157     -0.399136     -0.424586
Pb       3.80019      7.86055      4.34345         0.045449     -0.145827     -1.090032
Pb       3.81000      7.74054      0.00905        -0.037511     -0.107924     -0.151582
Pb       0.25962      7.91487      4.25641        -0.542093     -0.649524     -0.503848
Pb       0.03716      7.73211      0.02210        -0.103509     -0.073719     -0.414360
Pb       4.08975      7.67628      8.08840        -1.014664     -0.112398      0.842871
Pb      15.39677      7.74843      8.58711         0.101889      0.219833     -0.552187
Pb       3.92373      7.90174     12.43817        -0.105778     -0.702663     -0.143630
Pb      15.59790      7.98993     12.61200        -0.204003     -0.915871     -0.108799
Pb       3.82384     11.66940      4.08044         0.773437     -0.018502     -0.016074
Pb       3.93101     11.60397     16.44223        -0.663023      0.278439      0.196775
Pb      15.59241     11.66279      4.06230        -0.489805      0.062990      0.037698
Pb      15.53434     11.84500     16.55890         0.290006     -0.558791      0.046207
Pb       3.83284     11.62147      8.04256         0.054165      0.753452      0.742681
Pb      15.56920     11.60930      8.34073         0.101160      0.386165     -0.532574
Pb       4.06604     11.68936     12.28455        -0.362026     -0.190480      0.416223
Pb       0.22079     11.51268     12.28820        -0.582539      0.509229      0.712079
Pb       7.86688      3.72731      4.20566        -0.033810     -0.066002     -0.416996
Pb       7.85241      4.01149      0.13186         0.318087     -0.382049     -0.956653
Pb       7.78120     15.41666      3.98664        -0.264991      0.527826     -0.351297
Pb       7.91877      0.18511      0.12653        -0.318422     -0.129472     -0.473878
Pb       7.55871      3.98759      8.35354         0.283861     -0.194431     -0.419280
Pb       7.87850     15.50501      8.35159        -0.068016      0.176730     -0.154232
Pb       7.63691      3.77879     12.40348         0.694834     -0.239501      0.454953
Pb       7.64052     15.56436     12.57321         0.449236      0.114229     -0.355645
Pb       7.68608      7.86682      4.15915         0.320609     -0.089781      0.193729
Pb       7.84855      8.04541     16.59139        -0.115953     -1.136367     -0.237185
Pb       7.81584      7.76553      8.26527        -0.256015     -0.354393     -0.452455
Pb       7.84396      7.54837     12.33495         0.257539      0.351035      0.038319
Pb       8.01993     11.68607      4.35122        -0.974040     -0.052845     -0.949741
Pb       7.63947     11.67654      0.02980         0.611580      0.246708     -0.156505
Pb       7.59426     11.74266      8.07487         0.284217     -0.016624      0.419933
Pb       7.66408     11.45740     12.40299         0.443697      0.712280     -0.009593
Pb      11.78690      3.93794      4.39080         0.203679     -0.446602     -0.993783
Pb      11.84409      4.09812      0.13475        -0.895348     -0.175283     -0.185142
Pb      11.49497     15.46678      4.17966         0.278386      0.792336     -0.490800
Pb      11.55294     15.51177      0.11268        -0.190789      0.215495     -0.656795
Pb      11.77777      4.11666      8.41372        -0.182110     -0.373301     -0.799529
Pb      11.62083      0.13157      8.24767         0.421698     -0.085258      0.052493
Pb      11.86587      3.81479     12.63779        -0.497358      0.045235      0.057745
Pb      11.91004     15.52437     12.41653        -1.057924      0.422499      0.029073
Pb      11.72787      7.41976      4.00709         0.197026      1.365422      0.634304
Pb      11.35595      7.77553      0.02967         0.904343     -0.022122     -0.285375
Pb      11.51310      7.97475      8.22204         0.775939     -0.780234     -0.094595
Pb      11.50542      7.88860     12.69412         0.168307      0.066926     -0.593008
Pb      11.59995     11.25878      4.29229         0.470329      1.019694     -0.878667
Pb      11.81916     11.80785     16.50338        -0.475542     -0.734530      0.487061
Pb      12.08065     11.98462      8.43174        -0.690866     -0.539254     -0.247211
Pb      11.61971     11.89831     12.40615        -0.088259     -0.371272      0.183695
Ti       1.90193      1.83058      2.16878         0.022076      1.194247     -0.005785
Ti       2.00710      1.99889     14.70578         0.124398     -0.291216      0.050031
Ti       1.92199     13.54520      2.19249         0.055486      0.636033     -0.888094
Ti       1.95978     13.68481     14.41506        -0.038264     -0.462809      2.961771
Ti      13.56932      1.92012      2.20848        -0.418146      0.798944      1.404064
Ti      13.62234      1.92261     14.85154        -1.231009      0.866530     -0.625078
Ti      13.55046     13.61892      2.32150        -0.012577     -0.671975     -0.263518
Ti      13.70258     13.67544     14.59821        -0.464832     -0.966914      1.004201
Ti       1.92368      1.92140      6.34630         0.713907     -0.106855     -0.283108
Ti       1.93058     13.60489      6.15504        -0.013660      0.944798      1.285449
Ti      13.66715      1.88490      6.28472        -0.476655     -0.101556     -0.318981
Ti      13.73712     13.64204      6.18916        -0.125319      0.432338      1.378778
Ti       1.93947      1.91824     10.60434        -0.343380     -0.164890     -1.602017
Ti       1.92083     13.58543     10.41391         0.806272      0.724910     -1.257895
Ti      13.59185      1.97298     10.46849         0.132825     -0.386051      0.204137
Ti      13.79906     13.70388     10.48385        -0.624399     -0.083090     -0.110712
Ti       2.01746      5.74815      2.26346        -0.093840      0.651558     -0.709237
Ti       1.89696      5.75412     14.68535        -0.393125      0.433594     -0.096522
Ti      13.82573      5.86243      2.14033        -1.583903     -0.576549      0.004285
Ti      13.55948      5.93040     14.67151         0.494620     -0.445341      0.646866
Ti       1.82397      5.85131      6.38158         0.113967     -0.123467     -0.752645
Ti      13.63232      5.92570      6.30407         0.137375     -1.366187      0.357301
Ti       1.88254      5.82815     10.49917         1.523400     -0.103239      0.454199
Ti      13.73667      5.84123     10.56459        -0.845204      0.370018      0.780846
Ti       1.91663      9.75805      2.18614         0.548342     -1.316769     -0.064882
Ti       1.96969      9.69745     14.62932        -0.514246      0.361118     -0.227670
Ti      13.68069      9.69804      2.28223        -0.837453      0.007587     -1.637237
Ti      13.64495      9.72044     14.66304        -0.347006     -0.127869     -0.093760
Ti       1.80166      9.70434      6.46143         0.551932     -0.485268      0.102958
Ti      13.62805      9.67992      6.23209        -0.123848      0.237428      0.588252
Ti       1.99698      9.66986     10.39434         0.203053     -0.276797     -0.605131
Ti      13.49126      9.71453     10.69214         0.281391     -0.232600     -0.459154
Ti       5.82270      1.98804      2.13620         0.296540     -1.022840      0.855264
Ti       5.82561      1.97137     14.68212         0.979701      0.102871     -0.677939
Ti       5.84055     13.51838      2.16406         0.405000      0.731654      1.346662
Ti       5.89246     13.71820     14.82076         0.292897      0.171299     -1.487420
Ti       5.89870      1.86083      6.34340        -1.843095      0.539663     -0.082302
Ti       5.70133     13.67886      6.28856         0.428203      0.061002     -0.987602
Ti       5.79914      1.89616     10.52284         0.676313      0.019397      0.179027
Ti       5.86491     13.57638     10.50775         0.148318      0.360371     -0.543342
Ti       5.97836      5.87456      2.23111        -1.351999      0.175595      1.252832
Ti       5.83149      5.78145     14.65149         0.823861     -0.096510      0.226628
Ti       5.75401      5.76399      6.21062         0.331711     -0.624966      0.875146
Ti       5.86965      5.84225     10.51543        -1.204553     -0.252373     -0.695248
Ti       5.81999      9.71564      2.28360        -0.434910      0.432266      1.246666
Ti       5.87846      9.61470     14.63798        -0.782887      0.463117     -0.456728
Ti       5.77057      9.65108      6.26326         1.204720      1.086564     -0.642966
Ti       5.88994      9.61252     10.33285        -0.490999      0.273848      1.586733
Ti       9.75198      2.02633      2.17099         0.169016     -0.675637      0.437425
Ti       9.74176      1.99020     14.63790        -0.573767      0.425949      0.265565
Ti       9.81784     13.52354      2.17717        -1.581924     -0.038437      0.003142
Ti       9.68657     13.62793     14.64365        -0.385277      0.720594      0.260739
Ti       9.73049      1.96370      6.32028         0.073739     -0.116379      0.364607
Ti       9.81960     13.61080      6.40515         0.293534      0.374344      1.488597
Ti       9.73389      1.93496     10.54558        -0.581704     -0.598605      1.178003
Ti       9.73983     13.66449     10.41718        -0.459168      0.595616      0.757220
Ti       9.74873      5.84629      2.30849         0.091838     -1.022308     -1.391318
Ti       9.64652      5.81086     14.58995        -0.059456     -0.778353     -0.033904
Ti       9.66349      5.79930      6.37397         0.442614     -0.374005     -0.362654
Ti       9.90404      5.65222     10.47575        -0.801293      0.672135      1.601278
Ti       9.68923      9.65976      2.20609         0.904707      0.719505     -0.314326
Ti       9.76066      9.88757     14.63553         0.136302     -0.734257     -0.144988
Ti       9.76972      9.79882      6.32888        -1.192821     -0.827292      0.723754
Ti       9.75131      9.75020     10.31270        -0.118428      0.188274      1.829859
O       1.84381      1.73850      0.40709         0.365164      0.340501     -0.588763
O       1.80411      1.93658     12.85972         0.172625     -0.100505      0.384699
O       1.89371     13.56981      0.39318         0.045930      0.092189      0.677955
O       1.99636     13.54123     12.70596        -0.265787      0.477390     -0.841670
O      13.58837      2.08552      0.45737         0.031428     -0.690783     -1.823555
O      13.64893      1.95812     12.99427         0.429592     -0.429145      0.120091
O      13.41248     13.46662      0.54648         0.522999      0.563032     -1.348395
O      13.61224     13.67879     12.88061         0.333224      0.471353     -0.960702
O       1.84312      2.08510      4.55329         0.060377     -0.572979      0.094687
O       1.98531     13.68560      4.38422        -0.302414     -0.309832     -0.167980
O      13.61233      1.78149      4.48326         0.358364      0.468106      0.878305
O      13.65096     13.60279      4.42594         0.035035      0.233436      0.345497
O       1.87882      2.04625      8.64616         0.044648     -0.253746      1.290635
O       1.95234     13.73379      8.59929        -0.204343     -0.812346      0.924981
O      13.56735      1.91823      8.71480         0.043941      0.346103     -0.502030
O      13.75716     13.67543      8.64214        -0.251145     -0.561823      0.988332
O       1.99785      6.00313      0.44267        -0.175479     -0.372453      0.367367
O       2.01840      5.80121     12.91689        -0.134140     -0.056531     -0.235785
O      13.66286      5.85392      0.29860        -0.182006      0.041483      0.749857
O      13.54494      5.69792     12.92773         0.002545      0.123409     -1.136030
O       1.75546      5.81220      4.50879         0.148974     -0.033208      0.361909
O      13.57531      5.75016      4.53243         0.003864      0.289587     -0.467849
O       2.01759      5.58634      8.74807        -0.567882      0.723583     -0.530414
O      13.68210      5.97769      8.77739        -0.188822     -0.575947     -0.486715
O       1.84945      9.70401      0.42844         0.236498     -0.090166     -1.054631
O       1.81657      9.50711     12.79219         0.578899      0.509340      0.395986
O      13.57163      9.61395      0.45449         0.345329      0.397164      0.438427
O      13.51290      9.67983     12.81296         0.617105      0.143002      0.566048
O       1.85070      9.68260      4.65307         0.084780      0.221714     -0.289492
O      13.67902      9.86840      4.47356         0.097076     -0.546240      0.729100
O       1.98214      9.79531      8.54163        -0.262816      0.014217      1.313675
O      13.59074      9.73038      8.86416        -0.215276     -0.087418     -0.006855
O       5.86341      2.05955      0.38700        -0.161826     -0.131831     -0.462063
O       5.91470      1.96409     12.84035        -0.710309     -0.170126      0.492333
O       5.94594     13.54990      0.38371        -0.587456     -0.227765     -0.702289
O       5.90101     13.55726     12.93118        -0.514795      0.046278      0.424666
O       5.72440      1.93403      4.57253         0.266795     -0.006062     -0.176824
O       5.71577     13.68124      4.46868         0.337436      0.162984      0.967270
O       5.68703      1.94304      8.74615         0.594495     -0.229586     -0.354489
O       5.73419     13.54234      8.75538         0.154969      0.192012     -0.455411
O       5.98881      5.75363      0.46321        -0.532665      0.353395     -0.399321
O       5.92070      5.80919     12.87299        -0.484723      0.140024     -0.214685
O       5.71990      5.82645      4.44508         0.212973     -0.429338      0.564995
O       5.90854      6.06016      8.67414        -0.166388     -0.801590      0.445040
O       5.88352      9.66211      0.54011        -0.119463      0.095950     -1.653573
O       5.96450      9.71056     12.83785        -0.508488     -0.234506      0.259825
O       5.72144      9.83337      4.47795         0.272847     -0.674580      0.820680
O       5.85595      9.56786      8.59536        -0.239895      0.078819     -0.980018
O       9.59610      2.08713      0.37973         0.562423     -0.630146     -0.064448
O       9.66999      2.05043     12.85433         0.292083     -0.518261      0.732593
O       9.69553     13.67351      0.43904         0.499237     -0.293732     -0.838442
O       9.59542     13.65754     12.88680         0.371981     -0.310681     -0.562355
O       9.67857      1.80227      4.54181         0.039559      0.341610      0.363869
O       9.74044     13.60892      4.66356        -0.331578      0.338681     -1.232762
O       9.84664      1.87270      8.79742        -0.175035      0.160354     -1.017231
O       9.77922     13.70112      8.62988        -0.171411     -0.164597     -0.043721
O       9.75166      5.82585      0.46216        -0.632141      0.119587      0.837105
O       9.61589      5.66698     12.77008         0.361438      0.854185      0.257442
O       9.83369      5.67766      4.58328        -0.245699      0.347836     -0.303272
O       9.73760      5.65677      8.70210         0.015270      0.327539     -0.476493
O       9.71990      9.61551      0.37153        -0.276669     -0.165914      0.285919
O       9.80578      9.89592     12.82125        -0.605690     -0.400276      0.697772
O       9.65490      9.73086      4.56664         0.122399      0.223660     -0.863665
O       9.87730      9.76138      8.56136        -0.225235     -0.159159     -0.155186
O       3.88635      1.89024      2.46828        -0.376753      0.315398     -0.130661
O       3.89878      1.98726     14.97356        -0.839818     -0.296781      0.078902
O       3.89685     13.55903      2.41880        -0.623475      0.019342     -0.200992
O       3.80006     13.80569     14.98366         0.487395     -0.411269     -0.226953
O      15.55304      1.80433      2.43119        -0.174880      0.100184      0.315880
O      15.52873      1.92625     15.07678         0.096116     -0.022066     -0.188987
O      15.54534     13.64162      2.40745         0.221040      0.192527      0.317217
O       0.03165     13.55155     14.95503        -0.600544      0.624926     -0.304838
O       3.80904      1.91193      6.70274        -0.540859      0.166653     -0.166203
O       3.83393     13.60411      6.57791        -0.423176     -0.223996     -0.017338
O      15.59481      1.90129      6.75872        -0.671988      0.351192     -0.618250
O       0.00602     13.61815      6.55262        -0.540214      0.036559     -0.292380
O       3.80078      1.92853     10.73153         0.557621     -0.147157      0.583531
O       3.85715     13.53297     10.75209         0.624549      0.114969      0.500137
O      15.59524      1.86830     10.82842        -0.251149     -0.229301      0.256793
O       0.04588     13.43057     10.63946        -0.849295      0.060836      0.471452
O       3.90915      5.84424      2.43123        -0.144333     -0.597845      0.178293
O       3.91912      5.67317     15.06894        -0.352534      0.683782     -0.183328
O      15.57918      5.66648      2.31898         0.836808      0.640717      0.395875
O      15.50812      5.89353     14.92172         0.482966     -0.347128      0.225100
O       3.79899      5.92891      6.42782         0.908870     -0.158648      0.429091
O      15.53300      5.99345      6.68135         0.140679      0.024775      0.214835
O       3.89598      5.71675     10.84443        -0.336075      0.285392     -0.006897
O       0.03939      5.83739     10.77488        -0.544719     -0.035374      0.262701
O       3.86865      9.81766      2.50970        -0.666368     -0.044895     -0.076180
O       3.89136      9.65922     14.91487        -0.963485     -0.178210      0.158817
O      15.59050      9.74179      2.60402         0.170021     -0.626633     -0.170412
O      15.58803      9.73100     14.87977        -0.417988     -0.046335      0.030620
O       3.91685      9.73102      6.58997        -0.689168     -0.367043     -0.054891
O      15.54933      9.57381      6.76858        -0.663587      0.313155     -0.376605
O       3.85488      9.64439     10.78852         0.418581      0.163058     -0.159968
O      15.55038      9.66924     10.80126         0.354109      0.264994     -0.149747
O       7.80640      1.95205      2.49685        -0.763146     -0.211565      0.309649
O       7.74347      1.98916     14.96395         1.209689      0.058013      0.134340
O       7.82279     13.53025      2.55334        -0.333752      0.148427      0.140524
O       7.74437     13.60435     14.98132        -0.324770     -0.655973      0.303791
O       7.70796      1.96500      6.55842         0.678866     -0.393778      0.567242
O       7.61249     13.69966      6.75029         1.121329     -0.027529     -0.400597
O       7.73104      1.82058     10.87545        -0.200069      0.280592     -0.644899
O       7.73058     13.61433     10.72490         0.450536     -0.068516     -0.182324
O       7.74710      5.89826      2.71162         0.653753     -0.181452     -0.433054
O       7.76980      5.79769     15.01358        -0.130602      0.205262     -0.128748
O       7.74514      5.81912      6.59981        -0.173446     -0.358282      0.087653
O       7.67662      5.78316     10.78058         1.280455      0.231265     -0.237414
O       7.83871      9.68684      2.53362        -1.171892     -0.436687      0.166522
O       7.70446      9.81745     14.91311         0.715396     -0.289313      0.460290
O       7.74071      9.81940      6.45001         0.088592     -0.403394      0.741016
O       7.75905      9.56540     10.54016         1.047345      0.440364      0.379958
O      11.60359      2.02118      2.53793         0.507988     -0.629952     -0.166823
O      11.70666      1.79609     14.95985        -0.423729     -0.009424      0.151014
O      11.60364     13.44073      2.59935         0.878952      0.551045      0.133304
O      11.58823     13.52878     14.85095         1.067006      0.646806      0.344261
O      11.68814      1.87578      6.54598         0.310478      0.439646      0.111260
O      11.73609     13.68982      6.62605        -0.059198     -0.506587     -0.073641
O      11.69142      2.06020     10.92875         0.406381     -0.604779     -0.297446
O      11.76924     13.69346     10.81205        -0.945600      0.383228     -0.309660
O      11.66023      5.81107      2.37790         0.196897     -0.142820      0.425651
O      11.52003      5.99183     14.99547         1.202199     -0.062392     -0.239174
O      11.60706      5.76315      6.65443         0.673688     -0.118758      0.375150
O      11.77723      5.57260     10.74511        -0.842239     -0.224590     -0.216868
O      11.63427      9.57783      2.69476         0.413002      0.270373     -0.489235
O      11.66508      9.70247     14.91465        -0.307485      0.117655     -0.047971
O      11.64744      9.84317      6.44941         0.991020     -0.414501      0.394897
O      11.61750      9.58444     10.91588        -0.282741      0.452807     -0.797965
O       1.82251      3.86132      2.45123         0.637369     -0.076902     -0.087773
O       1.84602      3.88928     15.09190        -0.057066     -0.516730     -0.164184
O       1.93956     15.58747      2.49680         0.063175     -0.911209      0.083163
O       1.82556      0.07909     14.87067         0.103646     -1.151686     -0.016189
O      13.53526      3.83168      2.47774         0.454643      0.668958      0.237562
O      13.50793      3.93464     15.02684         0.131766     -0.880219     -0.007226
O      13.43849     15.57688      2.38340         0.174838     -0.617697      0.287270
O      13.65484     15.52246     15.09142        -0.221134      0.144811     -0.268101
O       1.88123      3.96675      6.64420        -0.289776     -0.729255     -0.091885
O       1.85986     15.56160      6.56812         0.236639      0.425192     -0.269618
O      13.74287      3.98060      6.50824        -0.419417     -1.516678      0.661822
O      13.65296     15.56315      6.61389         0.302414     -0.025548     -0.427971
O       1.87760      3.77215     10.91048         0.090138      1.021807     -0.181208
O       1.91632     15.49687     10.68597         0.076112      0.412988      0.659924
O      13.87369      3.79213     10.82722        -0.706786      0.959463     -0.232954
O      13.68174      0.01918     10.83244         0.115130     -0.572780      0.204719
O       2.02610      7.79939      2.61647        -0.712703     -0.001485      0.071598
O       1.79746      7.71153     14.94107         0.904532      0.892861      0.247679
O      13.69374      7.72140      2.56774         0.123354     -0.063189     -0.058288
O      13.57119      7.81087     14.80107         0.254116      0.564871      0.192375
O       1.94261      7.76581      6.60000         0.007038      0.555390      0.189689
O      13.43376      7.75537      6.50343         0.175978      1.839344      0.452176
O       1.94230      7.75346     10.58021        -0.083563      0.081829      0.269161
O      13.58093      7.68255     10.87568         0.277495      0.771919      0.131908
O       1.78597     11.59157      2.52486         0.590111      1.640014     -0.062139
O       1.95098     11.65347     14.68831         0.254676     -0.108902      0.527655
O      13.71776     11.63687      2.49216        -0.289406     -0.191111      0.171641
O      13.60051     11.72775     14.92976         0.291447     -0.357221      0.192634
O       1.86867     11.75006      6.55298         0.020626     -1.275607      0.206730
O      13.72459     11.59872      6.66396        -0.161324      0.686341      0.064878
O       2.03305     11.60650     10.77885        -0.516679     -0.477111     -0.201476
O      13.44565     11.78447     10.90808         0.846011     -1.029575     -0.874708
O       5.85522      3.88639      2.46415        -0.129185      0.599854      0.395152
O       5.94145      3.86496     14.92697        -0.716628      0.722725      0.388131
O       5.86699     15.58907      2.35232        -0.095179     -0.379908      0.466898
O       6.02515      0.05114     14.97271        -1.058034     -1.246822      0.183672
O       5.65162      3.86642      6.65501         0.664703      0.621907     -0.174347
O       5.59437     15.58279      6.70137         0.944334      0.009068     -0.286727
O       5.85074      3.85826     10.77983        -0.317315      0.015169     -0.217194
O       5.73471     15.58261     10.88208        -0.008356     -0.817805     -0.335205
O       5.69387      7.83073      2.77513         0.756751     -0.476148     -0.992341
O       5.68953      7.72434     15.01372         0.669017      0.423625     -0.199813
O       5.92868      7.68405      6.57836        -0.463780      1.153437     -0.485331
O       5.74394      7.73879     10.89253         0.260430      0.511730     -0.349039
O       5.81595     11.65578      2.61167         0.228981      0.254171     -0.673240
O       5.67311     11.59680     15.00232         0.647937      0.550919     -0.017717
O       5.79805     11.66786      6.56295        -0.207513      0.124789      0.256559
O       5.86792     11.55166     10.76419        -0.104942      0.146784     -0.132886
O       9.66970      3.85064      2.56040        -0.359197      1.154946      0.199985
O       9.87489      3.93297     14.96615        -0.391922     -0.587231     -0.041843
O       9.74592     15.56374      2.35618         0.206893     -0.346162      0.695407
O       9.58720     15.55933     15.04944         0.690604      0.364528     -0.110671
O       9.62645      3.83239      6.64457         0.239550     -0.108300     -0.028931
O       9.76777      0.02102      6.77922        -0.593919     -0.486161     -0.481573
O       9.56134      3.79872     10.76610         0.253213      0.980082     -0.295806
O       9.60012     15.56057     10.75866         0.768480     -0.355371      0.082610
O       9.70761      7.70791      2.52715        -0.200317      0.359388      0.207596
O       9.56287      7.80536     14.90011         0.345841      0.580719     -0.119032
O       9.70514      7.76089      6.62917         0.057333      0.372149      0.281325
O       9.73744      7.68019     10.73919         0.157333      0.248143     -0.185405
O       9.67825     11.55386      2.37029         0.192085      0.443378      0.737494
O       9.66479     11.67660     15.10070        -0.151161      0.077731     -0.382067
O       9.66566     11.70165      6.54324        -0.172812      0.500746      0.205184
O       9.80101     11.72858     10.67008        -0.156386     -1.061160     -0.037850
