  # total energy = -7881.94023942 
CRSYTAL
PRIMVEC
    15.6080000000000005    0.0000000000000000    0.0000000000000000
     0.0000000000000000   15.6080000000000005    0.0000000000000000
     0.0000000000000000    0.0000000000000000   16.6239999999999988
PRESSURE
-1.06814 -0.896797 -0.447447 -0.150044 0.112942 -0.054695
PRIMCOORD
320 1
Pb       4.01089      3.87450      4.20777        -0.315728      0.543924     -0.334916
Pb       3.90433      3.90379     16.62189        -0.147499     -0.178149     -0.451376
Pb       3.93508      0.04250      4.11359        -0.187209     -0.001205     -0.239086
Pb       3.83364     15.55481     16.52723         0.136666      0.343559     -0.076777
Pb      15.52602      3.85887      4.09408         0.378881     -0.186454      0.702834
Pb      15.57509      3.80705     16.60072         0.374611     -0.133312     -0.401835
Pb      15.59690     15.57364      4.07774        -0.356869      0.504793      0.248451
Pb       0.02975      0.01447     16.61831         0.022483      0.152181     -0.072070
Pb       3.86034      3.86350      8.26595         0.276982      0.316033      0.661624
Pb       3.98519      0.09801      8.29430        -0.543948     -0.166921     -0.012369
Pb      15.53247      3.93786      8.23752         0.562911     -0.341033      0.428226
Pb       0.04712     15.58423      8.25849         0.090802      0.387498      0.078500
Pb       3.70105      3.99017     12.62470         0.525832     -0.314663     -0.439132
Pb       3.81004     15.47111     12.51353         0.606835      0.144816     -0.523621
Pb      15.56565      3.89742     12.50158         0.548154     -0.403368     -0.664013
Pb       0.11101     15.59062     12.46913        -0.518755     -0.227261     -0.296781
Pb       3.74054      7.86590      4.01059         0.691388     -0.082405      0.724577
Pb       3.83940      7.66399     16.58003         0.420024      0.606778     -0.548954
Pb       0.02911      7.88438      4.03811        -0.049242     -0.244565      0.601479
Pb      15.54935      7.76615     16.60646         0.014942      0.052648     -0.401990
Pb       3.92638      7.77986      8.33823         0.092882     -0.101344     -0.482737
Pb      15.40806      7.75919      8.50742         0.617782     -0.111681     -0.931329
Pb       3.89535      7.85611     12.49961         0.059086     -0.476647     -0.272108
Pb      15.43182      7.72267     12.48587         0.416635      0.336274      0.386849
Pb       3.88741     11.71314      4.10191        -0.063847     -0.452321      0.276659
Pb       3.88750     11.67322     16.54043         0.137122     -0.300107     -0.124366
Pb      15.57971     11.79880      4.11174        -0.117106     -0.741805      0.057743
Pb      15.60096     11.80836      0.04939         0.295963     -0.347424      0.230259
Pb       3.84589     11.85460      8.32710         0.456974     -0.905650     -0.645635
Pb      15.51399     11.67095      8.14817         0.110403     -0.124636      0.569928
Pb       3.84621     11.74377     12.36585         0.421985     -0.042787     -0.049416
Pb       0.02007     11.54526     12.41794        -0.338883      0.467950     -0.575909
Pb       7.74385      3.71860      4.12926         0.026351      0.821439     -0.065596
Pb       7.69888      3.82958     16.55828         0.339545     -0.368234     -0.148343
Pb       7.74524     15.50401      4.13473         0.318239      0.293963     -0.737932
Pb       7.79179      0.02061     16.62091         0.161452     -0.210108     -0.425574
Pb       7.73546      3.83298      8.49857        -0.245322      0.300131     -0.617018
Pb       7.86707     15.55703      8.38551        -0.072195      0.273229     -0.293945
Pb       7.78823      3.76060     12.49666         0.037929      0.219691      0.073712
Pb       7.87705      0.01437     12.52294        -0.403283      0.070556     -0.278470
Pb       7.80409      7.80407      4.04067        -0.130239     -0.166452      0.444294
Pb       7.73549      7.83278     16.53963         0.301460     -0.293002      0.010417
Pb       7.94831      7.86455      8.26246        -0.837087     -0.311307      0.475917
Pb       7.93908      7.63484     12.44188        -0.646848      0.345529      0.386344
Pb       7.82320     11.75970      4.04058        -0.145170     -0.560370      0.398029
Pb       7.77076     11.68543     16.49815        -0.165444      0.299160      0.758086
Pb       7.70018     11.70203      8.28075        -0.481924     -0.376059     -0.488314
Pb       7.81941     11.58054     12.45888        -0.764241     -0.078038     -0.539866
Pb      11.76676      3.89746      4.29771        -0.348483     -0.204339     -0.207779
Pb      11.74941      4.05521      0.16038        -0.178668     -0.556385     -0.533086
Pb      11.54066      0.04981      4.18347         0.231521      0.164314     -0.175929
Pb      11.64539     15.59287     16.53704        -0.016170     -0.415384      0.255413
Pb      11.64062      4.06191      8.39303         0.018135     -0.578773     -0.611876
Pb      11.51862     15.60091      8.29273         0.403310      0.269525      0.069706
Pb      11.78463      3.76008     12.45531        -0.741979     -0.037952      0.414820
Pb      11.62463     15.48592     12.38047         0.274550      0.214404     -0.037978
Pb      11.73137      7.62038      3.98347        -0.619173      0.698222      0.441286
Pb      11.67319      7.80383      0.02131        -0.211469     -0.231347     -0.534681
Pb      11.65662      7.82813      8.20401        -0.177827      0.005625     -0.151575
Pb      11.50996      7.90135     12.50387         0.648723     -0.494368      0.497093
Pb      11.75255     11.54637      4.29958        -0.168753      0.224453     -0.682274
Pb      11.88432     11.70355     16.58529        -0.543566      0.305307      0.291816
Pb      11.75813     11.81730      8.39209         0.293763      0.016247     -0.140083
Pb      11.65774     11.70657     12.36610         0.771808      0.289266     -0.295450
Ti       1.92289      1.99762      2.12090        -0.185756     -0.126628     -0.733546
Ti       1.95679      1.92034     14.52526         0.101045      0.624629      2.479731
Ti       1.92726     13.80357      2.18788        -0.739937     -1.222497     -0.298962
Ti       1.84747     13.60539     14.66017         0.851860      0.167898     -0.565636
Ti      13.55395      1.93157      2.17520         0.248284     -0.390596      0.606796
Ti      13.69127      1.77360     14.62692         0.016811      1.366384     -0.010410
Ti      13.58808     13.70418      2.26950        -0.105357     -0.457320     -0.147796
Ti      13.69987     13.57876     14.66299        -0.605446     -0.182189     -1.286843
Ti       1.98723      1.90455      6.31239        -0.876151     -0.023539     -0.073101
Ti       1.93577     13.58188      6.32457         0.527240      0.655314      0.115960
Ti      13.61092      1.89788      6.48570         0.062204      0.231782     -0.303785
Ti      13.61358     13.66437      6.43336        -0.238043     -0.247248     -0.641273
Ti       1.95700      1.88666     10.52099         0.075878      0.850059      0.664643
Ti       1.95548     13.59323     10.40070        -0.592826     -0.101140      1.928579
Ti      13.67224      1.96093     10.52709         0.143786     -0.903350      1.167495
Ti      13.70952     13.71399     10.48988        -0.135061     -1.067162     -0.353070
Ti       1.99943      5.78186      2.22074        -0.152813     -0.089302      0.313889
Ti       1.92607      5.83809     14.68657         0.044131      0.033960     -0.542653
Ti      13.68534      5.76101      2.26064        -0.281829      0.431742      0.719701
Ti      13.65578      5.63669     14.62272        -0.122879      2.041739      0.777198
Ti       1.94015      5.75561      6.46245        -0.404443      0.231090     -1.235632
Ti      13.58126      5.87887      6.45459         1.017677     -0.625045     -0.755725
Ti       1.95467      5.78195     10.48620         0.215452     -0.480600      0.628887
Ti      13.62232      5.84412     10.62273        -0.331495     -0.196935     -0.139371
Ti       1.95932      9.79912      2.07657        -0.440856      0.131490      0.043770
Ti       1.90639      9.72688     14.63758        -0.169093     -0.256421      0.840715
Ti      13.63382      9.74784      2.13913         0.031281      0.200413      1.551841
Ti      13.63299      9.68682     14.72701         0.746101     -0.568452     -0.673933
Ti       1.97609      9.64690      6.45030         0.178163      0.210384     -0.767263
Ti      13.69168      9.71441      6.25404         0.227254      0.133209      1.049164
Ti       1.99032      9.63410     10.48678        -0.119860      0.321027     -0.039655
Ti      13.66863      9.65750     10.44852        -0.040866      1.840558      0.947417
Ti       5.81118      1.94724      2.05196         0.075882      0.131807      0.913329
Ti       5.79500      1.83910     14.63000         0.773843      0.286476      1.666541
Ti       5.81395     13.61562      2.17697         0.549757      0.791382     -0.130172
Ti       5.81144     13.63821     14.68152         0.317343     -0.028168     -0.805189
Ti       5.86291      1.95110      6.38183         0.318375      1.280488      0.543729
Ti       5.81965     13.71562      6.23659         0.011852     -1.910745      0.836142
Ti       5.77520      1.90629     10.63170         0.106246      0.064506      1.312676
Ti       5.91842     13.67169     10.47349        -0.665514      0.065100      1.810245
Ti       5.82842      5.92624      2.08724         0.656308     -0.341384      1.402413
Ti       5.92816      5.75209     14.70250        -0.721313      0.958996     -0.623060
Ti       5.80771      5.82652      6.36689         0.671934     -0.007048     -0.867714
Ti       5.78434      5.82076     10.64052         0.418422     -0.568967     -0.863679
Ti       5.86089      9.80791      2.11734        -0.313781     -0.692207      1.068680
Ti       5.82267      9.73748     14.57273         0.022133     -0.316092     -0.480856
Ti       5.85171      9.65440      6.29386         0.043660      1.228952      0.250508
Ti       5.80180      9.66967     10.47239         0.948110      0.852935      1.498941
Ti       9.69201      1.92318      2.16043         0.549974     -0.262279      0.663160
Ti       9.90783      1.91892     14.73592        -1.423530     -0.056475     -1.090125
Ti       9.83376     13.60789      2.25738        -0.074519      0.006790     -0.744526
Ti       9.73907     13.58680     14.63832         0.232552      1.233305     -0.148879
Ti       9.66669      1.99913      6.38209         0.312744      0.363581     -0.055304
Ti       9.70955     13.65655      6.30933        -0.181896      0.215875      0.064381
Ti       9.77136      1.95235     10.57024        -0.058803     -0.509679     -0.236564
Ti       9.65837     13.63380     10.45813         0.738931      0.316385      0.373425
Ti       9.67421      5.72445      2.18878        -0.345400      0.893488     -0.184748
Ti       9.79746      5.70802     14.76479        -0.296346      1.252017     -0.796536
Ti       9.61624      5.88243      6.34696        -0.144378     -0.536034     -0.605871
Ti       9.79197      5.81317     10.55321        -1.006872     -0.039851      0.665623
Ti       9.71790      9.69783      2.20287         0.290758      0.285570      0.441536
Ti       9.70677      9.81629     14.73230         0.383208     -1.766460     -0.044147
Ti       9.80891      9.80707      6.39068        -1.051876     -0.864610     -1.578229
Ti       9.77249      9.70873     10.50659        -0.773228      0.212505     -0.778604
O       1.82868      1.97556      0.28103         0.307094     -0.186643      1.167057
O       1.93210      1.96549     12.82693        -0.186614     -0.016425     -2.078694
O       1.65807     13.76017      0.38815         0.790055      0.092349      0.164153
O       1.87130     13.54972     12.85443         0.115350      0.244320      0.907145
O      13.67116      1.91689      0.40555        -0.178029      0.274808     -0.084993
O      13.66662      1.77796     12.85052        -0.178007      0.538271      0.048306
O      13.72576     13.65971      0.48113        -0.194185      0.154432     -0.429715
O      13.73788     13.56433     12.86130        -0.085976     -0.026230      0.642915
O       2.03928      1.88612      4.50238        -0.083403     -0.106337      0.272060
O       2.06950     13.72089      4.50835        -0.439237     -0.354266     -0.020906
O      13.58346      1.88589      4.69968         0.022062      0.120431      0.518826
O      13.53200     13.60834      4.61643         0.156017      0.429762      0.727241
O       2.09105      1.83107      8.76860        -0.419719     -0.032815     -0.422570
O       1.86667     13.64382      8.67630         0.230041     -0.005908     -0.872482
O      13.81337      2.05313      8.82894        -0.517801     -0.331975     -1.753775
O      13.68537     13.44907      8.64407         0.031357      0.335435      0.500014
O       1.99862      5.86151      0.44076         0.057784     -0.295311     -0.099605
O       1.93532      5.92064     12.88274        -0.128402     -0.380426      0.677117
O      13.57782      5.62401      0.51966         0.168822      0.084155     -0.761594
O      13.64737      5.75047     12.84757         0.354474      0.139240     -0.038833
O       1.95289      5.65306      4.65144        -0.057960      0.287650     -0.102185
O      13.65201      5.71733      4.67347        -0.241886     -0.013058     -0.348335
O       2.02631      5.60905      8.72491        -0.064451      0.553353     -0.327517
O      13.60384      5.96384      8.82316        -0.114034     -0.318943     -0.198935
O       2.03713      9.78110      0.29736        -0.092223     -0.409823      0.693180
O       1.98813      9.81385     12.84632        -0.164549     -0.534494      0.217142
O      13.57343      9.62869      0.38596         0.036956      0.367678     -0.194917
O      13.74389      9.63043     12.90437        -0.190490      0.262834      0.724875
O       1.94460      9.68886      4.62438        -0.100396     -0.135476      0.199494
O      13.78090      9.79556      4.52497        -0.227980     -0.214248     -0.956479
O       2.01936      9.70407      8.72939         0.081628     -0.130749     -0.559973
O      13.81742      9.79679      8.67589        -0.832066     -0.862212      0.064770
O       5.85090      1.96038      0.28983         0.126955     -0.366200      0.378413
O       5.87677      1.79186     12.92707         0.407068      0.262981     -1.697878
O       5.96310     13.60447      0.42021        -0.625480     -0.052790     -0.339107
O       5.68184     13.71061     12.89602         0.420887     -0.060591      0.829547
O       5.85897      2.10575      4.60816        -0.104945     -0.558239     -0.197221
O       5.71614     13.56423      4.44495        -0.228398      0.650737      0.710774
O       5.78242      1.94898      8.88339         0.178119     -0.244987     -1.455317
O       5.94880     13.73580      8.72530        -0.095902      0.052416     -0.850381
O       5.81347      5.76967      0.32862        -0.190796      0.242494     -0.629278
O       5.81601      5.77539     12.91492         0.436179      0.211551      0.069474
O       5.92288      5.73805      4.55083        -0.382610      0.025125      0.765043
O       5.79539      5.79700      8.83359        -0.257870      0.185567      0.555376
O       5.81216      9.88128      0.38642        -0.114559      0.103251     -0.644195
O       5.99973      9.87715     12.74359        -0.656375     -0.582830      1.817420
O       5.91891      9.71903      4.51148        -0.308248      0.222506      0.106700
O       5.71584      9.79039      8.73286         0.160947     -0.254959     -0.505530
O       9.76245      1.89039      0.39434         0.192432      0.023768     -0.648590
O       9.97124      1.86397     12.90222        -0.474776     -0.279802      0.348862
O       9.91315     13.63730      0.43630        -0.374091     -0.183185      0.448269
O       9.90329     13.71926     12.83218        -0.600660     -0.478126      0.661533
O       9.64039      1.94396      4.58777        -0.119077     -0.197370      0.201360
O       9.80309     13.65808      4.48377        -0.333547      0.171837      0.989216
O       9.64937      2.05081      8.77428         0.502750     -0.117099     -0.085305
O       9.53021     13.59100      8.65108         0.481259      0.318547      0.611396
O       9.80591      5.78327      0.36466        -0.029142     -0.453736      0.397671
O       9.66675      5.95042     12.96526         0.465298     -0.257247     -0.003711
O       9.56761      5.93005      4.54698         0.326955     -0.191216      0.275720
O       9.76531      5.82142      8.76851         0.391104     -0.091941      0.146310
O       9.68797      9.85450      0.43723         0.670827     -0.275639     -0.486824
O       9.69489      9.60733     12.91049         0.237286      0.687873      0.718453
O       9.59899      9.55722      4.56496         0.275232      0.915834      1.273889
O       9.83446      9.62887      8.67537        -0.019643      0.482133      0.913914
O       3.90004      2.01372      2.34191         0.032932     -0.786249      0.234922
O       3.92416      1.89482     14.79940        -0.175678     -0.067343      0.716329
O       3.74160     13.81896      2.35011         0.910463     -0.619467      0.007354
O       3.89702     13.72771     15.08874        -0.677696     -0.403767     -0.197950
O      15.51074      1.99361      2.46825         0.407678      0.016266      0.177679
O       0.04332      1.99813     14.82472        -1.094597     -0.028312      0.392409
O      15.46017     13.52333      2.64028         1.396331      1.405883     -0.062632
O       0.00050     13.71325     15.03445         0.080438     -0.172413     -0.353685
O       3.84973      2.07545      6.71407         1.364217     -0.688268     -0.426382
O       3.88814     13.53172      6.69007         0.472520      0.469795     -0.227497
O       0.01919      1.77289      6.63152        -0.097385      0.397755      0.198156
O       0.00957     13.55755      6.50346        -0.364959      0.543945      0.200212
O       3.89060      1.95249     10.89793        -0.216727     -0.148382      0.117772
O       3.88979     13.71108     10.76634        -0.497979     -0.486858     -0.314909
O       0.01659      2.00017     10.84050        -0.197094     -0.273630      0.303129
O      15.56562     13.51420     10.81958         0.615410      0.465906     -0.181071
O       3.92092      5.80747      2.56410        -0.526864     -0.116717     -0.364321
O       3.94082      5.88450     14.91458        -0.880925     -0.117338      0.488139
O      15.55456      5.64714      2.56776         0.486552      0.374343     -0.472447
O      15.59869      5.85809     15.08313        -0.246458     -0.934491     -0.318130
O       3.93215      5.63821      6.66995        -0.313261      0.548419     -0.030190
O      15.58727      5.83792      6.83506        -0.103577      0.007432     -0.135292
O       3.87754      5.61301     10.98908         0.512648      0.968906     -0.559744
O       0.00149      5.96197     10.85467        -0.247832     -0.702352     -0.328234
O       3.88159      9.71457      2.47635        -0.961575      0.265768      0.015717
O       3.96082      9.66607     14.96967        -0.967102      0.398901     -0.386201
O      15.54192      9.55359      2.43822         0.755925      0.704760     -0.374874
O       0.05368      9.74278     15.00792        -0.273920     -0.094618     -0.022548
O       3.90718      9.81154      6.59207        -0.241732     -0.210713      0.268413
O      15.57894      9.72889      6.63729         0.564441     -0.272565      0.176340
O       3.92195      9.84872     10.87864        -0.100992     -0.339221     -0.039629
O       0.06448      9.49970     10.70397        -0.247883      0.337821      0.521498
O       7.85434      1.75327      2.50418        -1.796318      0.531434     -0.129444
O       7.89288      1.89771     14.96263        -0.370194     -0.175110      0.166698
O       7.72075     13.66646      2.54163         0.696889     -0.301877      0.050898
O       7.80283     13.67076     14.99965         0.625792     -0.166326     -0.457099
O       7.76587      2.02904      6.87051        -0.760377     -0.842674     -0.641062
O       7.73865     13.77813      6.55241         0.210038     -0.090580     -0.214657
O       7.87705      1.79241     10.85699        -0.670661      0.187082      0.592785
O       7.80512     13.77463     10.84584         0.474984     -0.168077      0.080455
O       7.68947      5.97033      2.46738         0.928604     -0.584596     -0.498762
O       7.81036      5.92940     14.97314         0.039561     -0.491147      0.362013
O       7.81179      5.97928      6.79313        -0.553257     -0.424533     -0.215746
O       7.83225      6.00569     10.82309         0.070369     -0.849576      0.070984
O       7.75778      9.83268      2.37984         0.236513     -0.167167      0.306822
O       7.73924      9.74630     15.11596         1.086212      0.101999     -0.841508
O       7.75875      9.65748      6.78800         0.523083      0.854810     -0.275850
O       7.81680      9.73810     10.77982         0.788078     -0.093360     -0.317134
O      11.59302      1.94727      2.62992         0.729377      0.036035     -0.335655
O      11.74954      1.97526     15.04975         0.536624     -0.273123      0.039338
O      11.71180     13.63204      2.54821        -0.343418     -0.031309      0.003682
O      11.81492     13.49166     14.92136        -0.543352      0.267818      0.309455
O      11.60931      1.93355      6.66289         0.689705      0.037844      0.498001
O      11.64674     13.65656      6.82804         0.086449      0.262270     -0.425106
O      11.69922      1.77312     10.82056         0.410211      1.019262     -0.173041
O      11.74613     13.50575     10.75402        -0.559801      0.327791     -0.188878
O      11.61939      5.73634      2.55866         0.366817     -0.247710     -0.045609
O      11.73196      5.70138     14.98210         0.151869      0.319795      0.284845
O      11.66308      5.80550      6.70031        -0.228293      0.167926      0.169378
O      11.67282      5.83703     10.91520         0.120424     -0.329535     -0.174866
O      11.66956      9.75769      2.73809         0.374995     -0.510763     -1.033741
O      11.75520      9.84057     15.02718        -0.832526     -0.210310     -0.286734
O      11.71583      9.71514      6.50339        -0.319386      0.036340      0.359607
O      11.71426      9.71657     10.76524        -0.229972     -0.216191      0.185007
O       1.99579      3.81268      2.41699        -0.334450      1.059146      0.200785
O       2.04721      3.87383     14.93441        -0.318962      0.755783     -0.034775
O       1.78282      0.04775      2.36860        -0.071886     -0.123841      0.444820
O       1.96962      0.06118     14.78636        -0.239260     -1.554860      0.579465
O      13.51825      3.81786      2.71525         0.181148      0.205775     -0.657980
O      13.63092      3.86214     14.94301         0.506943     -0.985553      0.075895
O      13.61080      0.02956      2.55573         0.044210     -0.174799      0.032585
O      13.68557     15.58733     14.90751        -0.157698     -1.061800      0.500466
O       1.87165      3.80319      6.68291        -0.127351     -0.267228      0.134838
O       2.09325     15.53541      6.69052        -0.352741      0.170270     -0.163387
O      13.62224      3.91073      6.91961        -0.208466     -0.566692     -0.797983
O      13.66119     15.59165      6.96350        -0.486643     -0.195788     -0.834145
O       1.91922      3.89916     10.93320        -0.319307     -0.469676      0.064537
O       1.86816     15.57857     10.91481         0.198318     -0.411849     -0.504816
O      13.52039      3.85470     10.90894         0.722857      0.635810     -0.308020
O      13.63292     15.55920     10.67525         0.457028     -0.148743      0.102229
O       1.88707      7.69270      2.55609         0.215134      0.323415     -0.349719
O       1.77629      7.75978     14.98715         1.143880      0.431301      0.019916
O      13.63033      7.73663      2.46100        -0.300980     -0.707103      0.216605
O      13.69410      7.72984     15.06326        -0.348084      0.251709     -0.102111
O       2.07595      7.65657      6.71356        -0.173325      1.194776      0.099270
O      13.66250      7.75371      6.60104        -0.274257      0.639740      0.470767
O       2.20667      7.66699     10.64248        -0.032448      1.304923      0.403074
O      13.66304      7.72942     10.91508        -0.475385      0.568164     -0.373885
O       1.77771     11.65420      2.27927         0.572085      0.204895      0.748343
O       1.95019     11.71894     14.99153         0.108402      0.057461     -0.056084
O      13.66111     11.66480      2.45229        -0.206973     -0.446351      0.094003
O      13.82535     11.62595     15.10982        -0.427358      0.705778     -0.454496
O       1.92471     11.67644      6.77619         0.212789      0.010108     -0.554232
O      13.55615     11.66651      6.58083         0.188383      0.260900      0.313283
O       1.94530     11.67179     10.83482        -0.016295     -0.007015     -0.509079
O      13.58535     11.58976     10.77852         0.656541     -0.744394      0.282029
O       5.90985      3.85855      2.30755         0.074494     -0.438322      0.416453
O       5.87676      3.83634     15.02517         0.014410      0.275472     -0.321474
O       5.79478     15.56402      2.52419        -0.087730      0.774957     -0.008314
O       5.91405     15.55610     15.11454        -0.430851      0.190932     -0.283845
O       5.91449      3.94221      6.72280         0.154913     -0.906948      0.144515
O       5.75039      0.05787      6.56059        -0.102291     -0.269161     -0.036582
O       5.98789      3.86451     10.94340         0.134501     -0.193374     -0.136439
O       5.81315     15.58916     10.99934         0.136477     -0.017817     -0.629434
O       5.79868      7.83777      2.35715        -0.198572     -0.074938     -0.118046
O       5.83664      7.81656     15.03482         0.208786     -0.025380     -0.277900
O       5.81848      7.80206      6.60354        -0.425835     -0.597491      0.322794
O       5.77586      7.81153     10.89719        -0.484970     -0.361032     -0.239105
O       5.68891     11.74564      2.54823         0.069918     -0.415796     -0.331096
O       5.85878     11.70054     14.89786        -0.212185     -0.014540      0.286966
O       5.92421     11.74134      6.67468        -0.113032      0.365303     -0.117600
O       6.00804     11.78284     10.88357        -0.544078     -0.037644     -0.622188
O       9.58389      3.86771      2.48652         0.123243     -0.094280     -0.103955
O       9.71284      3.85085     14.84677         0.088897      0.016845      0.548670
O       9.74416     15.57465      2.46613         0.235681     -0.576941      0.464508
O       9.84823     15.52328     14.87334         0.259464      0.070254      0.807028
O       9.60735      3.90938      6.56911         0.469498      0.464541      0.433941
O       9.72155      0.00841      6.62362        -0.062349     -0.222758      0.440944
O       9.66049      3.81814     11.00774         0.640215      1.221375     -0.637367
O       9.81761     15.56089     10.66408         0.023948     -0.597488      0.364413
O       9.78319      7.70793      2.39967        -0.105425      0.939525      0.104516
O       9.87373      7.78326     15.06085        -0.227073      0.992461      0.145611
O       9.69296      7.84023      6.68551         0.880701     -0.359274      0.319533
O       9.84572      7.77157     10.90165        -0.337098      0.404387     -0.545569
O       9.75693     11.62868      2.69547         0.004013      0.655464     -0.587049
O       9.71277     11.70611     14.95657         0.074938     -0.488514     -0.175818
O       9.73941     11.79873      6.69270        -0.239115     -1.395368     -0.473290
O       9.72859     11.72490     10.92607         0.003573     -0.853456     -0.618155
