  # total energy = -7878.51914453 
CRSYTAL
PRIMVEC
    15.6080000000000005    0.0000000000000000    0.0000000000000000
     0.0000000000000000   15.6080000000000005    0.0000000000000000
     0.0000000000000000    0.0000000000000000   16.6239999999999988
PRESSURE
-0.635169 -0.633289 0.093444 -0.035537 -0.397027 -0.06551
PRIMCOORD
320 1
Pb       3.74306      3.83835      4.13338         0.592634     -0.256891      0.218686
Pb       3.74092      3.73964     16.59705         0.358662     -0.003459     -0.457246
Pb       3.93733     15.42920      4.32120        -0.031418      0.536792     -0.904678
Pb       4.00397     15.60592      0.07639        -0.056990     -0.308640     -0.171387
Pb      15.58509      3.88894      4.14073         0.011674     -0.278228      0.939777
Pb      15.58422      3.96821     16.60940         0.187954      0.037555     -0.172913
Pb       0.10136     15.59735      4.30976        -0.333663     -0.022700     -0.533054
Pb      15.59770     15.55494      0.03230         0.655342     -0.173218      0.044433
Pb       4.04975      4.05882      8.31164        -0.333431     -0.616253     -0.253092
Pb       3.88309      0.01959      8.48132        -0.069550     -0.072641     -0.492364
Pb       0.11939      3.95150      8.25413        -0.121540     -0.420288     -0.787150
Pb      15.60745      0.07350      8.36569        -0.151787     -0.357660     -0.498212
Pb       3.96452      3.89116     12.31772        -0.705247     -0.163219      0.258037
Pb       3.93015      0.12985     12.34199         0.444468     -0.263417      0.432619
Pb      15.49184      3.79918     12.33510         0.825809      0.478591      0.337386
Pb      15.44595     15.55599     12.32184         0.487504     -0.240151      0.140105
Pb       3.94101      7.66240      4.24525         0.254688      0.222418     -0.831192
Pb       3.85714      7.84326      0.05195        -0.080133     -0.283706     -0.597915
Pb      15.50202      7.73433      4.13488         0.287527      0.184655     -0.459332
Pb       0.01942      7.78658      0.01820        -0.158231     -0.210380      0.091894
Pb       3.93510      7.86387      8.26354         0.027534     -0.519738      0.238037
Pb       0.20521      7.87984      8.01003        -1.204897     -0.439301      1.232921
Pb       3.75814      7.80307     12.48820        -0.061995      0.314644     -0.125619
Pb       0.04696      7.73491     12.39475        -0.098441      0.207802     -0.000316
Pb       4.00770     11.59156      4.29296        -0.347854      0.410288     -0.307817
Pb       3.91702     11.63461     16.60267        -0.636537      0.728777      0.705020
Pb       0.06715     11.68133      4.25709         0.073912      0.207082     -0.884099
Pb       0.02980     11.60841     16.58981         0.147769      0.320418      0.416226
Pb       3.89134     11.46530      8.33572        -0.110545      0.812608      0.057616
Pb      15.56655     11.72887      8.40222        -0.025780     -0.188825     -0.193804
Pb       3.78341     11.73335     12.61672        -0.128230      0.072826     -0.980513
Pb      15.36387     11.74186     12.45558         0.576059     -0.345700     -0.263646
Pb       7.86556      4.07534      4.13050        -0.608866     -0.293556     -0.400115
Pb       7.73032      3.71437      0.12392        -0.477225      0.076691     -0.288294
Pb       7.87511      0.05234      4.16781        -0.871788     -0.286943     -0.213028
Pb       7.81223     15.41083     16.56084        -0.511608      0.133542     -0.101784
Pb       7.87092      3.97060      8.06403        -0.335818     -0.409002      1.602754
Pb       7.70746     15.58247      8.37862         0.469337      0.161495     -0.332135
Pb       7.78512      4.12170     12.50515         0.380310     -0.578485     -0.487581
Pb       7.79630      0.08234     12.42327        -0.172110     -0.438647      0.132230
Pb       7.74477      7.76166      4.12603        -0.012335      0.301157     -0.691073
Pb       7.89632      7.65393      0.04607        -0.746508      0.065500     -0.157800
Pb       7.68920      7.77853      8.40038         0.381680     -0.143569      0.189446
Pb       7.68098      7.97592     12.59032         0.529069     -0.315865     -0.742599
Pb       7.75226     11.64535      4.14681         0.253675      0.183235     -0.011560
Pb       7.91403     11.51495      0.05514        -0.662165      0.910507     -0.136246
Pb       7.73884     11.57595      8.46122         0.635478      0.014910     -0.762646
Pb       7.70265     11.77685     12.54972         0.344449     -0.050842     -0.806445
Pb      11.55805      3.99620      3.94866         0.281018     -0.301273      0.820193
Pb      11.62567      3.66880     16.42844         0.266009      0.351167      0.132091
Pb      11.96903      0.16916      4.18427        -0.221313     -0.069642     -0.156939
Pb      11.78463     15.58098      0.04397        -0.375858      0.074481     -0.815259
Pb      11.70842      3.62460      8.06722        -0.447779      1.211379      0.934056
Pb      11.79225     15.40134      8.27946        -0.590430      0.358783      0.142398
Pb      11.53715      3.95836     12.36450        -0.211073     -0.528311      0.146680
Pb      11.82843      0.04613     12.57313        -0.851033      0.189450     -0.157579
Pb      11.66074      8.02099      4.14621        -0.239347     -0.536264      0.091119
Pb      11.70672      7.73877     16.55618         0.280957     -0.197106     -0.158673
Pb      11.71464      7.74701      8.22912         0.252657     -0.014537     -0.062270
Pb      11.91149      7.52105     12.39217        -0.509975      0.812737      0.611052
Pb      11.53755     12.07428      4.10143         0.076187     -0.766537      0.544753
Pb      11.68412     11.75245      0.04856         0.016058     -0.252186     -0.518779
Pb      11.54288     11.48770      8.10604         0.159202      0.484808      0.712932
Pb      11.64564     11.53228     12.52038        -0.200317      0.454724     -0.400715
Ti       1.91299      2.00053      2.18556         0.250771     -1.009791     -0.243391
Ti       1.83626      2.01923     14.50429         1.869934     -0.481595      0.672180
Ti       1.89893     13.73923      2.22666        -0.100906     -0.770150     -1.545006
Ti       1.86093     13.76941     14.64178         0.277312      0.383100      0.352840
Ti      13.67126      2.02598      2.21444         0.203128     -0.591016      0.826144
Ti      13.77805      1.83813     14.63004        -1.323940      0.410157     -1.239934
Ti      13.62007     13.66248      2.19666         0.930268      0.864638      0.634297
Ti      13.62991     13.50454     14.68495        -0.110775      0.483788      0.021400
Ti       2.09355      1.81591      6.37377        -0.777991      1.458316      0.057948
Ti       1.91893     13.57347      6.47151         0.198104     -0.015172     -0.391971
Ti      13.67299      1.87035      6.42155         1.073957      0.256669     -0.977477
Ti      13.62085     13.53568      6.38282         0.189551      0.826684     -0.103238
Ti       1.88439      1.86211     10.47704         0.561129      1.500010     -0.294529
Ti       1.93154     13.59314     10.48630        -0.169098     -0.698435      0.585177
Ti      13.59481      1.96136     10.44639        -0.611069     -0.097455      1.792558
Ti      13.46858     13.65860     10.39788         1.032367     -1.251942      0.630148
Ti       1.84832      5.87519      2.21195         0.732332      0.468470      0.262667
Ti       1.87843      5.91694     14.63240         0.151997     -0.887782     -0.640986
Ti      13.55696      5.82279      2.28095         0.289274      0.033777     -0.834233
Ti      13.60846      5.66213     14.66672         0.564259      1.546731      0.257540
Ti       2.00961      5.73546      6.36899        -0.333465     -0.549265      0.177419
Ti      13.59703      5.83346      6.28927         0.210914     -0.290836      1.427543
Ti       1.89132      5.88327     10.39875         1.034011     -0.461859      1.563351
Ti      13.72977      5.78255     10.37052        -0.897572      1.200313      0.214566
Ti       1.91638      9.74947      2.27390        -0.079194      0.660254     -0.116646
Ti       1.88703      9.83309     14.69198        -0.296322     -1.448308     -0.566412
Ti      13.57601      9.83671      2.21908         1.059595     -0.206265     -0.044638
Ti      13.62785      9.61440     14.74634        -0.064542     -0.028426     -0.079585
Ti       2.04471      9.69981      6.27765        -0.777003      0.786415      1.441167
Ti      13.71262      9.72500      6.24174        -0.764034      0.261001      0.226898
Ti       1.95297      9.78454     10.40353        -0.226993      0.055955      0.887468
Ti      13.62686      9.77061     10.45394         0.759984     -0.266137     -0.122845
Ti       5.76354      1.96715      2.24240        -0.230510     -0.427241      0.003801
Ti       5.84155      1.90074     14.70939        -0.760247     -0.480359      0.460826
Ti       5.75207     13.66783      2.30944         0.395909      0.472957     -0.592696
Ti       5.70659     13.59776     14.65088         0.767608      1.680515     -0.201684
Ti       5.89549      1.89707      6.28921        -0.600555      0.366980     -0.785389
Ti       5.79936     13.65085      6.38406         0.550898     -0.515868     -0.606659
Ti       5.94471      2.03050     10.35917        -0.101606     -0.325336      1.641224
Ti       5.80141     13.64839     10.43943         0.188530     -0.166436      3.780989
Ti       5.64760      5.81050      2.09844         1.314500      0.100107     -0.247632
Ti       5.78199      5.73293     14.75821        -0.917455      0.385384      1.664232
Ti       5.89365      5.80282      6.27032        -0.907495      0.583055     -0.226308
Ti       5.75438      5.98544     10.51063         1.434205     -0.260779     -0.713192
Ti       5.79549      9.81307      2.17402         0.121284     -0.739125      1.209864
Ti       5.81408      9.78395     14.65064         0.042865     -1.303224      0.188145
Ti       5.91525      9.69069      6.40526         0.785899     -0.076815     -0.534708
Ti       5.82180      9.77665     10.59279         0.316697      0.337884      0.858066
Ti       9.63166      1.93844      2.22082         0.093309     -0.411441     -0.154595
Ti       9.68048      1.84212     14.61734         0.431844     -0.178057     -1.054279
Ti       9.65022     13.73433      2.21349        -0.565788     -0.923939      1.639821
Ti       9.72783     13.54836     14.67879        -0.597391      0.685494     -0.734543
Ti       9.71986      1.92750      6.33459        -0.343300     -0.123260     -0.178980
Ti       9.67058     13.76141      6.43141        -0.680305     -1.325410     -0.270721
Ti       9.69805      1.88383     10.48906         0.473077      0.252086      0.161006
Ti       9.68587     13.60944     10.49048        -0.146586     -0.357588      0.561887
Ti       9.66852      5.83574      2.08353        -0.495203      1.147022      0.037304
Ti       9.66883      5.82343     14.70633         1.195685      0.184309     -0.200385
Ti       9.71273      5.96213      6.36986         0.417131     -0.413109     -0.586921
Ti       9.68471      5.87079     10.44206        -0.406789      0.126496      0.218357
Ti       9.75788      9.76969      2.07850        -1.045822     -0.119611      3.047256
Ti       9.70509      9.71543     14.58255         0.423884      0.009016      1.525176
Ti       9.72493      9.66543      6.34563        -0.595020      1.795452     -1.052005
Ti       9.90586      9.66377     10.49597        -2.407666      0.462352      0.545791
O       1.78544      1.94596      0.36501         0.272268      0.098046      0.741024
O       1.88373      1.92491     12.74066        -0.165193      0.192181     -1.396854
O       1.73243     13.93657      0.32881         0.121889     -0.360015      1.226261
O       2.00944     13.50929     12.87370        -0.206568      0.180433     -0.326606
O      13.68392      2.14429      0.45701        -0.026807     -0.371178     -1.068969
O      13.71254      1.74670     12.72149         0.223626      0.259192      1.113219
O      13.63562     13.77574      0.44074         0.088871     -0.057312     -1.088822
O      13.49996     13.56768     12.88751         0.391908      0.083639     -0.077664
O       1.94826      2.11694      4.61136         0.100090     -0.641973     -0.332795
O       1.94978     13.63353      4.67417        -0.012620     -0.287773     -0.267689
O      13.77907      1.76305      4.61178        -0.694511      0.184092      0.603911
O      13.62669     13.84186      4.60678        -0.562692     -0.396773     -0.359055
O       2.09243      1.84872      8.65615        -0.487411     -0.139397      0.686310
O       1.93918     13.58567      8.70898        -0.279479      0.185236     -0.657927
O      13.51432      1.90174      8.72993        -0.123025      0.272859     -1.584709
O      13.67834     13.54200      8.64132        -0.356543      0.080370     -0.493649
O       1.77809      5.96549      0.45642         0.400044     -0.529724     -0.449821
O       1.86406      5.83906     12.81786        -0.374266      0.702125      0.145121
O      13.60420      5.63590      0.49740         0.122949      0.172256      0.311373
O      13.80388      5.88458     12.89318        -0.416365     -0.327625      0.081642
O       1.87961      5.63435      4.63424         0.448587      0.802143     -1.095328
O      13.48994      5.80856      4.55538         0.356275     -0.013686     -0.258934
O       2.20086      5.86329      8.66721        -0.583461     -0.169006     -0.753198
O      13.46078      5.86825      8.62763         0.426821     -0.139074      0.393543
O       1.90690      9.60084      0.49380         0.128484      0.221026     -0.327276
O       1.77674      9.74641     12.89754         0.538014      0.045444      0.133250
O      13.64656      9.65007      0.44817        -0.230263      0.353530      0.293789
O      13.66122      9.89263     12.95472        -0.119728     -0.808036      0.366672
O       2.01515      9.88765      4.56154        -0.450402     -0.186358     -0.979004
O      13.57684      9.86719      4.47970         0.056351     -0.657962     -0.063669
O       2.00464      9.85185      8.60305        -0.115746     -0.308096      0.171435
O      13.55458      9.81958      8.67727         0.298215     -0.392769      0.051879
O       5.78585      2.01227      0.42056        -0.122233     -0.526592     -0.134591
O       6.00470      1.84636     12.96475        -0.534315      0.264623     -0.841910
O       5.63427     13.68779      0.52809         0.251594     -0.327450     -0.416146
O       5.72173     13.64453     12.84717        -0.271044     -0.206215      0.768472
O       5.74214      1.90390      4.45904         0.415570      0.372864      1.685290
O       5.65073     13.77798      4.56193         0.118989     -0.501887      0.980880
O       5.84527      1.89769      8.62831         0.030839     -0.095218     -0.591635
O       5.94649     13.55691      8.75451         0.027744      0.339437     -2.522735
O       5.75572      5.82198      0.30254        -0.420166      0.328100     -0.480056
O       6.08959      5.72683     13.03500        -0.458804      0.377766     -1.186290
O       5.82073      5.80689      4.47021         0.264474      0.216394      0.314744
O       5.70156      6.07170      8.68088        -0.084522     -0.408826      1.114806
O       5.65675      9.93445      0.41991         0.117047     -0.326179     -0.591300
O       5.72828      9.76088     12.83242         0.213796      0.311110      1.464778
O       6.04398      9.76234      4.61709        -0.672830     -0.476305      0.181013
O       5.83638      9.68159      8.78787        -0.169446     -0.065530     -0.714229
O       9.74297      1.97149      0.44738        -0.064389     -0.106897      0.018984
O       9.79822      1.83406     12.76390        -0.427871     -0.161795      1.668793
O       9.59172     13.46298      0.52256         0.369798      0.128798     -1.811187
O       9.80919     13.60804     12.90332        -0.062767     -0.187709     -0.039300
O       9.58287      1.82146      4.53469         0.469307      0.379102      0.099917
O       9.71061     13.75826      4.61806         0.448999     -0.022474      0.159082
O       9.67967      2.03847      8.69525         0.428568     -0.165336      0.182354
O       9.58912     13.50714      8.70238        -0.109713      0.485324      0.423854
O       9.77767      5.96943      0.31447         0.018763     -0.664965      0.418993
O       9.64876      5.85575     12.92226        -0.138298     -0.335459     -0.169687
O       9.50815      5.87283      4.54539         0.389307      0.128951      0.023411
O       9.74910      5.80819      8.65128         0.161251      0.367521      0.075174
O       9.66229      9.79755      0.37028         0.087593      0.145596     -1.533830
O       9.72506      9.87981     12.86830         0.139195     -0.548205     -0.753591
O       9.58192      9.57055      4.50414         0.249326      0.115847      1.062286
O       9.84201      9.80258      8.70046        -0.230571     -0.541318     -0.118768
O       3.87264      1.90010      2.48371        -1.268269     -0.043167     -0.080888
O       3.82975      1.89832     14.79400        -0.184059     -0.289168      0.615160
O       3.79548     13.70743      2.49415        -0.644096      0.351257      0.493523
O       3.73036     13.75376     15.07750         0.480187     -0.213724     -0.428833
O      15.56408      2.06932      2.63421         0.686126      0.256874     -0.708688
O      15.59999      2.22668     14.79295        -1.208701     -0.526293      0.394563
O      15.58185     13.69929      2.64876        -0.568252     -0.249523     -0.110096
O      15.51266     13.57557     14.88855        -0.021773     -0.152316      0.154199
O       3.91937      2.09854      6.61925         0.571406     -0.814912      0.090961
O       3.92597     13.69590      6.81612        -0.097502     -0.400201     -0.204558
O      15.58699      1.84038      6.70424         0.157910     -0.025935      0.549733
O      15.47611     13.79335      6.63547         1.390105     -0.710401      0.299553
O       3.99625      1.94026     10.77584        -0.888569     -0.543376     -0.021542
O       3.88287     13.74760     10.74267         0.082449      0.301824     -0.190574
O      15.52817      1.93922     10.61521         0.738820      0.077637      0.200938
O       0.01262     13.43190     10.76340        -0.441505      0.441133      0.053100
O       3.81341      6.13434      2.44937        -0.721718     -0.291226      0.370349
O       3.83158      5.88396     14.76730         1.151111      0.283203      0.557767
O       0.03015      5.76436      2.71048        -1.117282     -0.110288     -0.591924
O      15.56391      5.81295     15.05336        -0.553207     -0.602218     -0.142815
O       3.91005      5.69563      6.49369         0.188911      0.533753      0.291012
O       0.00459      5.82965      6.73835        -0.376296      0.067351     -0.154194
O       3.90609      5.84677     10.94282        -0.168554      0.423463     -0.198369
O       0.05537      5.85405     10.68078        -0.980616     -0.183979     -0.361932
O       3.83554      9.89200      2.66216         0.143160     -1.064977     -0.399324
O       3.77918      9.54050     14.97228         0.857600      0.887973     -0.140876
O      15.49730      9.80731      2.67662         0.114614      0.268481     -0.270616
O      15.56988      9.70680     15.06466        -0.450582      0.122500      0.050874
O       3.91194      9.66158      6.67404         0.334696      0.672375     -0.320549
O       0.03185      9.77485      6.63502        -0.385882     -0.271314     -0.488265
O       3.85504      9.72284     10.82409        -0.090840     -0.140690     -0.076733
O      15.58831      9.84652     10.69467        -0.345014      0.055933     -0.006260
O       7.67509      2.00029      2.54554         1.200710      0.363336     -0.247387
O       7.72893      1.87138     15.01556         1.342499      0.033351      0.134871
O       7.68594     13.52483      2.55033         0.768855      0.294380      0.091693
O       7.73923     13.62230     14.95494        -0.039052     -0.516597      0.012794
O       7.78221      1.97605      6.66164        -0.537241     -0.187149     -0.228441
O       7.73092     13.63692      6.52863        -0.026099      0.336874      0.665592
O       7.86876      1.92762     10.77290        -1.503817      0.343484     -0.052427
O       7.75883     13.59244     10.93984         0.429109     -0.362751     -0.480167
O       7.59968      5.78046      2.25533         1.713657     -0.101846      0.665617
O       7.92271      5.63470     15.17609        -1.969023      0.120115     -0.267191
O       7.82933      5.94916      6.68576        -1.265960     -0.087398     -0.075309
O       7.73433      5.94044     10.68010        -0.438943     -0.340600      0.446495
O       7.67121     10.04643      2.39706         0.551965     -0.677261     -0.426083
O       7.75345      9.91719     14.96656        -0.685434     -0.294422     -0.481501
O       7.79983      9.50160      6.84479        -0.752141      1.056198     -0.408455
O       7.76686      9.76335     10.95908        -0.407220      0.067979     -0.490555
O      11.68336      2.02420      2.53454        -0.776470     -0.238613      0.022132
O      11.74669      1.69844     14.87257        -0.322873      0.607468      0.513245
O      11.63138     13.71952      2.42906         0.208995      0.319853      0.253605
O      11.64935     13.63263     15.02540         0.789447     -0.018593      0.632367
O      11.66619      1.86076      6.52969        -0.380641      0.464860      0.168276
O      11.58039     13.47039      6.77213         0.585980      1.192973     -0.515930
O      11.65758      1.90731     10.88897         0.651976      0.281808     -0.584534
O      11.67503     13.67471     10.70555        -0.770098      0.227436     -0.113972
O      11.60168      5.86058      2.48579        -0.443361     -0.034768      0.040407
O      11.66068      5.84050     14.98599         0.264965     -0.041250     -0.241870
O      11.59469      5.99114      6.57421         0.556184     -0.655316     -0.085956
O      11.68745      5.84319     10.93554         0.047943     -0.233608     -0.941157
O      11.62287      9.64113      2.47814         0.614589      0.094052     -0.333240
O      11.62623      9.63486     15.06068         0.700266      0.327626     -0.308714
O      11.71760      9.65497      6.52691        -0.233118     -0.008660      0.085740
O      11.69179      9.60072     10.81547         1.344036     -0.135062      0.320508
O       2.15648      3.95621      2.43614        -0.900833     -0.341974     -0.261790
O       1.96033      3.92126     14.86001        -0.041846      0.072338      0.549354
O       1.81594      0.07642      2.52115         0.073654     -0.037451      0.266655
O       1.62635      0.06355     14.66107         0.045132     -0.582102      0.620897
O      13.57131      3.91612      2.75807         0.094680     -0.161403     -0.487728
O      13.52785      3.83278     14.88632        -0.012190     -0.539809     -0.065130
O      13.68101      0.08110      2.45736        -0.440945     -0.107162      0.013046
O      13.69735      0.00800     14.89745         0.331322     -0.569963      0.324701
O       1.90521      3.84554      6.64114        -0.257730      0.172706      1.018869
O       1.99955     15.52045      6.55597         0.109555      0.800659      0.662734
O      13.66125      3.84171      6.71617        -0.224668      0.265960     -0.332139
O      13.51770     15.59508      6.76193        -0.010601     -0.410970      0.079775
O       1.91424      3.91835     10.75708         0.147458     -0.560105     -0.280933
O       1.77694     15.58573     10.67116         0.531710      0.058766      0.375029
O      13.66956      3.94927     10.82377        -0.300243     -0.979335     -0.452835
O      13.70154     15.54224     10.57665        -0.114647      0.276297      0.549590
O       1.72755      7.84291      2.55794         0.432955     -0.174181      0.606310
O       1.78575      7.73998     15.02691         0.342388      0.698701     -0.261370
O      13.73757      7.68936      2.56718        -0.553441      0.947420      0.056411
O      13.67995      7.68648     15.13264        -0.493218      0.860937     -0.678066
O       1.99998      7.78024      6.62648         0.184256      0.011212     -0.537264
O      13.63250      7.73879      6.50728         0.358392      0.915474      0.236682
O       1.91423      7.85153     10.62706         0.019170     -0.660620      0.588514
O      13.72317      7.70146     10.87880        -0.229619      0.745187     -0.448053
O       1.87348     11.75380      2.24193        -0.356308      0.060439      0.878026
O       1.88655     11.65293     15.04676         0.207640      0.566879     -0.069490
O      13.50983     11.78874      2.31678        -0.000412     -0.916806      0.477749
O      13.64263     11.64098     15.12085        -0.537350      0.131216     -0.173380
O       1.93316     11.65767      6.68046         0.063255      0.491577     -0.023224
O      13.65695     11.66771      6.45820         0.187543     -0.137661      0.493718
O       2.10913     11.65463     10.74651        -0.198170      0.711262      0.020425
O      13.49457     11.66974     10.79160         0.241595     -0.249493      0.125272
O       5.56588      3.95052      2.30006         0.186934     -0.318082      0.681284
O       5.69891      3.79537     15.10154         0.578202      1.133485     -0.536808
O       5.82127      0.02912      2.53719        -0.109843     -0.450732     -0.021320
O       5.83275     15.48322     15.09320        -0.330491      0.913918     -0.101922
O       5.86476      3.96498      6.70281         0.489519     -0.665408     -0.276556
O       5.89672      0.02257      6.60211        -0.433803     -0.315620      0.404288
O       5.76351      3.92065     10.67256         0.477193      0.365843      0.240345
O       5.99991      0.03498     10.82930        -0.732573     -0.322861     -0.734713
O       5.85651      7.80506      2.46834        -0.260572      1.401014      0.080504
O       5.96683      7.87430     15.02224        -0.239251     -0.280150     -0.309314
O       5.71062      7.71444      6.62143         0.272543      0.359670     -0.148436
O       5.79753      7.87879     11.01381        -0.162363     -1.491329     -0.344153
O       5.65620     11.76735      2.73035         0.413374     -0.618427     -0.535959
O       5.63041     11.77587     15.01457         0.059619     -1.601422     -0.443702
O       5.95588     11.57454      6.58339        -0.635373      1.079384      0.566450
O       5.80378     11.67930     10.82622        -0.191750      0.673937     -0.137339
O       9.54755      3.93305      2.44130         0.716403     -0.186996      0.166655
O       9.80408      3.69730     14.84494         0.023659      0.788803      0.252072
O       9.52100     15.59043      2.39532         0.371187      0.791774     -0.000008
O       9.71534     15.49800     15.10160         0.035983      0.441477     -0.058097
O       9.57459      3.88447      6.62378         1.335239      0.255806     -0.881902
O       9.64053      0.06017      6.82256         0.280467     -0.993683     -0.296038
O       9.60274      3.99035     10.91343         0.870238     -0.451059     -0.294932
O       9.60445     15.56109     10.80319         0.556612     -0.315325     -0.705773
O       9.49909      7.81330      2.31266         0.176141     -0.094902      0.387586
O       9.59133      7.80561     14.87660        -0.010082     -0.243221      0.362554
O       9.64165      7.88246      6.68606         0.830698     -2.278832      0.287689
O       9.61964      7.79591     10.82854         0.610770     -0.339385     -0.166602
O       9.79564     11.65472      2.65088        -0.104438      0.368421     -0.598195
O       9.74582     11.64592     14.97250         0.309875      0.387892      0.364380
O       9.63374     11.65197      6.67433        -0.057398     -0.391961     -0.326379
O       9.81352     11.57223     10.84037        -0.071532      1.416945     -0.115376
