  # total energy = -7879.14906440 
CRSYTAL
PRIMVEC
    15.6080000000000005    0.0000000000000000    0.0000000000000000
     0.0000000000000000   15.6080000000000005    0.0000000000000000
     0.0000000000000000    0.0000000000000000   16.6239999999999988
PRESSURE
-0.578189 -0.704232 -0.114946 0.024368 -0.231727 -0.101757
PRIMCOORD
320 1
Pb       3.75377      3.83760      4.11697         0.174111     -0.585701      0.434195
Pb       3.74378      3.74462     16.60861         0.255600      0.061850     -0.002231
Pb       3.93522     15.42803      4.31539        -0.237419      0.870116     -0.504544
Pb       3.99651     15.59646      0.08388        -0.225011     -0.326761      0.079809
Pb      15.56987      3.87593      4.14048         0.190907     -0.121069      0.664745
Pb      15.57519      3.97120     16.59855        -0.002102     -0.247920      0.009289
Pb       0.10717     15.59821      4.30028         0.112008      0.252486     -0.842266
Pb      15.60243     15.54839      0.02806         0.227812     -0.059508      0.157014
Pb       4.03556      4.05826      8.32427         0.086885     -0.815849     -0.644270
Pb       3.88192      0.04990      8.49502         0.300260     -0.143227     -0.694030
Pb       0.11827      3.95018      8.24082        -0.192622     -0.710820     -0.287996
Pb       0.01499      0.08417      8.34750         0.002065     -0.176952     -0.045330
Pb       3.96234      3.91455     12.30313        -0.446027     -0.129970      0.873980
Pb       3.92453      0.11238     12.33013        -0.021662      0.015179      0.103336
Pb      15.49235      3.77190     12.30268         0.639686      0.537888      0.428996
Pb      15.42527     15.57328     12.33246         1.168770     -0.377167     -0.092600
Pb       3.92768      7.66507      4.25255         0.254966      0.489618     -0.517526
Pb       3.84836      7.83556      0.04340         0.167823      0.096327     -1.003878
Pb      15.51664      7.75044      4.11807         0.045563     -0.307461     -0.024988
Pb       0.02384      7.79102      0.02374        -0.313019     -0.348190     -0.209926
Pb       3.96321      7.86871      8.25456        -0.236580     -0.865419      0.454479
Pb       0.20063      7.87383      8.01397        -1.221825     -0.062269      1.315208
Pb       3.75052      7.81774     12.49714         0.552720     -0.185648     -0.133614
Pb       0.04052      7.74003     12.39957        -0.194608      0.068175     -0.298851
Pb       4.00746     11.60172      4.28932        -0.440264      0.137306     -0.037372
Pb       3.91738     11.63398     16.59285        -0.188495      0.506192      0.072129
Pb       0.06790     11.70105      4.25424         0.199602      0.321626     -0.819845
Pb       0.03675     11.62613     16.61234        -0.211676      0.695250      0.078651
Pb       3.88908     11.45704      8.31208         0.154359      1.554702     -0.027136
Pb      15.54228     11.72827      8.39984         0.105831     -0.071759     -0.228063
Pb       3.78237     11.74544     12.62238        -0.087227      0.040545     -0.775899
Pb      15.37191     11.71237     12.43821         0.386287     -0.127925     -0.090623
Pb       7.84748      4.07833      4.12901        -0.226433     -0.692287     -0.551875
Pb       7.71077      3.70251      0.11640         0.002047      0.305972     -0.238227
Pb       7.84703      0.04891      4.15361        -0.340475     -0.000215     -0.100297
Pb       7.81051     15.39629     16.55842        -0.075275      0.471974      0.740301
Pb       7.85589      3.98649      8.07439        -0.316938     -0.747027      0.937528
Pb       7.71320     15.57016      8.39327         0.048122      0.184445     -0.125387
Pb       7.77563      4.14608     12.48030        -0.105028     -0.244280      0.090552
Pb       7.80393      0.09981     12.44449        -0.090241     -0.255615     -0.538201
Pb       7.71505      7.76017      4.09840        -0.151389      0.377935     -0.628531
Pb       7.91274      7.67753      0.02845        -0.762055      0.116487     -0.667881
Pb       7.70031      7.78606      8.41448         0.254835     -0.354611      0.053801
Pb       7.69718      7.96326     12.58485         0.064513     -0.955776      0.161988
Pb       7.74667     11.66074      4.13773        -0.129879      0.093005      0.162201
Pb       7.90922     11.50463      0.04437        -0.708138      0.517911     -0.048822
Pb       7.70579     11.57813      8.45072         0.227654      0.598164     -0.870677
Pb       7.69951     11.75417     12.55698         0.553686     -0.073526     -0.539132
Pb      11.56155      4.01423      3.98007         0.034896     -0.583673      0.272738
Pb      11.63593      3.67456     16.40308         0.191251     -0.044657      0.641959
Pb      11.96971      0.19148      4.19367        -0.652344     -0.277315     -0.355020
Pb      11.77849     15.57612      0.04807        -0.490368      0.143848     -0.342029
Pb      11.71319      3.63693      8.06328        -0.400504      0.907862      1.451819
Pb      11.76838     15.38703      8.26105        -0.599146      0.895751      0.198123
Pb      11.54406      3.95182     12.37889        -0.049855     -0.037457     -0.131229
Pb      11.85765      0.03129     12.56661        -0.880702     -0.024862     -0.224886
Pb      11.66366      7.98502      4.12831         0.150530     -0.610674     -0.113913
Pb      11.68956      7.73592     16.55396         0.353905     -0.079781      0.108873
Pb      11.71786      7.75622      8.19586         0.311235      0.203626      0.489634
Pb      11.91385      7.51326     12.39697        -0.518235      0.414960      0.053794
Pb      11.51626     12.07016      4.11410         0.967813     -0.344900      0.641380
Pb      11.71404     11.76206      0.03365         0.231298     -0.052978     -0.115896
Pb      11.56192     11.49491      8.09864        -0.003639      0.203889      0.446050
Pb      11.63376     11.53870     12.50501        -0.278506      0.347768     -0.247691
Ti       1.92667      1.98277      2.14410         0.065350     -0.745019      1.971714
Ti       1.89853      1.97683     14.49101         0.573571      0.112354     -0.738450
Ti       1.91487     13.69232      2.22261        -0.651233      0.074338     -0.502568
Ti       1.87458     13.81939     14.61380         0.128320     -0.863789      1.402115
Ti      13.67445      2.02798      2.20184         0.003631     -0.325870     -0.477777
Ti      13.76141      1.82254     14.60633        -1.273797      0.614116      0.951072
Ti      13.65526     13.68324      2.24193         0.027526      0.273920      0.039040
Ti      13.62076     13.56899     14.70308         0.162602      0.017480      0.732188
Ti       2.11189      1.82842      6.41611         0.155924      1.364168     -0.280717
Ti       1.91267     13.60485      6.46671         1.109763      0.244081     -0.139920
Ti      13.70014      1.87563      6.44314         0.881723     -0.115453     -0.118563
Ti      13.64360     13.56175      6.39467        -0.148009      0.803791      0.047453
Ti       1.91569      1.95081     10.45756         0.374089     -0.003499     -0.241257
Ti       1.88123     13.59528     10.48259         0.339151      0.661322     -0.584767
Ti      13.59539      1.94938     10.48001        -0.105854      0.062055     -1.496353
Ti      13.50640     13.59168     10.39576         0.731046     -0.144957      0.536743
Ti       1.91527      5.89937      2.23324        -0.831117     -0.942712      0.366374
Ti       1.83315      5.88877     14.64592         0.683959     -0.334248      1.013709
Ti      13.59145      5.85024      2.27647         0.127279     -0.912958     -0.807870
Ti      13.58065      5.69304     14.67969         1.175870      0.387233     -0.234757
Ti       1.94018      5.73870      6.38792         0.859711     -0.877230     -0.570544
Ti      13.52713      5.81046      6.37676         0.750996      0.089238     -0.318915
Ti       1.91687      5.88147     10.43354         1.111685     -0.266773      0.070078
Ti      13.73909      5.82688     10.39762        -1.454075      0.002155     -0.048391
Ti       1.89020      9.71728      2.27217         0.966739      1.100933      0.137107
Ti       1.85111      9.85003     14.67900         0.559033     -1.501226     -0.546966
Ti      13.67965      9.82464      2.16705        -0.575878      0.324171     -0.047242
Ti      13.64416      9.64539     14.70584        -1.216872      0.374837      0.809132
Ti       2.03378      9.75596      6.31221        -0.469043      0.856344     -0.390445
Ti      13.72310      9.75843      6.19791        -0.636973     -0.164794      1.035062
Ti       1.98530      9.77786     10.43596        -0.295697      0.026065      0.137346
Ti      13.63673      9.77600     10.45173         0.290580     -0.874385      0.232993
Ti       5.76481      1.95351      2.25316         0.032307     -0.183528      0.526247
Ti       5.84674      1.87040     14.71769        -0.621423      0.431003     -0.553112
Ti       5.72782     13.67988      2.27874         0.441747      0.381314     -0.779385
Ti       5.74932     13.64484     14.61546         0.040942     -0.268494      2.249100
Ti       5.95082      1.83550      6.31124        -2.463546      1.669825      0.244359
Ti       5.84180     13.66422      6.41585        -0.404794     -0.384930      0.601363
Ti       5.88926      2.00233     10.43067        -0.073918     -0.521563     -0.192757
Ti       5.76557     13.61017     10.47805         0.666202      0.701205     -0.941194
Ti       5.62898      5.78560      2.09501         1.919564     -0.280605     -0.412863
Ti       5.69668      5.72365     14.83745         0.954500      1.019042     -1.179706
Ti       5.91617      5.84041      6.23423        -1.852105     -0.868757      1.096632
Ti       5.79984      5.90516     10.55390        -0.076111      0.160826      1.242984
Ti       5.78620      9.78000      2.14796         0.200786     -0.389423      1.392819
Ti       5.79138      9.71942     14.64524         0.279643     -0.685028      1.844993
Ti       5.91909      9.68008      6.41475         0.427477      0.813026     -1.132779
Ti       5.86442      9.73874     10.57723        -0.437263     -0.245569      1.057480
Ti       9.63963      1.95277      2.24001         0.439857     -0.172538     -1.077453
Ti       9.68721      1.82250     14.64630         0.678974      0.552825      0.888211
Ti       9.60490     13.71567      2.22000         1.004282      0.169076     -0.440788
Ti       9.67746     13.55988     14.69066         0.544266      0.763991     -0.006936
Ti       9.73383      1.96640      6.29302        -0.609058     -0.735117     -0.425230
Ti       9.66832     13.72754      6.47698        -1.061568     -0.019840     -0.253201
Ti       9.70584      1.88465     10.46557        -0.340451      0.465174      0.654832
Ti       9.72177     13.56767     10.48978        -0.631142     -0.088685      0.891104
Ti       9.66672      5.87823      2.13521        -0.059713     -0.365464     -0.422193
Ti       9.70129      5.79961     14.75093        -1.114121     -0.238913     -0.352515
Ti       9.71469      5.97520      6.35121        -0.144093     -1.517040     -0.603500
Ti       9.64844      5.85569     10.41841         0.581865     -0.497717      0.672694
Ti       9.78262      9.76875      2.18444        -1.026412     -0.159396     -0.618195
Ti       9.73853      9.77003     14.63706        -0.134698     -0.916998      0.739289
Ti       9.69059      9.68374      6.29624        -0.236733      1.099138      0.880744
Ti       9.84564      9.60712     10.53852        -0.355664      0.964874      0.463051
O       1.89534      1.90456      0.41097        -0.109309      0.041297     -1.333424
O       1.87490      1.89291     12.65377        -0.003569      0.446858      1.301757
O       1.79188     13.90095      0.42549         0.066893     -0.250256      0.043324
O       1.98170     13.57268     12.89444         0.024287     -0.170530     -1.172633
O      13.76423      2.12493      0.39353        -0.252279     -0.539022      0.614488
O      13.83143      1.69609     12.80121        -0.725638      0.312789     -0.947381
O      13.60593     13.74537      0.46805         0.496342     -0.281576     -0.514520
O      13.61760     13.68312     12.91975         0.002663     -0.164957     -0.775407
O       1.92729      2.06485      4.63277         0.256577     -0.516499      0.072299
O       1.90783     13.65729      4.61228         0.112849     -0.231656      0.778930
O      13.70365      1.76319      4.66069        -0.253099      0.292349     -0.304434
O      13.54636     13.75204      4.62833         0.029332     -0.081027     -0.533879
O       2.12923      1.90005      8.63264        -0.712547     -0.013429      0.642379
O       1.90677     13.67096      8.65419        -0.425409     -0.291066      0.848388
O      13.50414      1.86768      8.63578         0.172457      0.507319      1.253631
O      13.70429     13.50189      8.63898        -0.483415      0.109439     -0.505783
O       1.78937      5.88988      0.48661         0.423094      0.332561     -0.771243
O       1.89472      5.78647     12.92076        -0.616224      0.737753     -1.646006
O      13.62006      5.67798      0.48828         0.275215      0.197177      0.439750
O      13.82851      5.77968     12.89085        -0.626279      0.473553      0.019838
O       1.85059      5.60415      4.60604         0.573368      1.307678      0.109865
O      13.55105      5.77691      4.58869        -0.016221      0.248320      0.619574
O       2.19645      5.90909      8.66622        -0.929783     -0.250732      0.183036
O      13.43923      5.81210      8.66334         0.704449      0.214865     -0.578750
O       1.98783      9.66081      0.48380        -0.344047      0.090255     -0.124263
O       1.79732      9.68445     12.86633         0.313244      0.486605      0.303899
O      13.68883      9.72149      0.36699        -0.161073     -0.037665      1.169621
O      13.47644      9.98896     12.94356         0.746267     -1.021424     -0.227282
O       1.98140      9.87059      4.50739        -0.177098     -0.159756      0.711530
O      13.58205      9.89849      4.47444         0.132733     -0.843420     -0.513262
O       1.98438      9.76536      8.62155        -0.175589      0.278519      0.446184
O      13.59337      9.77376      8.70853         0.080663     -0.041742     -0.978966
O       5.79867      2.10936      0.46695        -0.316885     -0.991252     -0.780397
O       5.84007      1.72121     12.89929         0.215465      0.486192      0.970108
O       5.70067     13.74371      0.45303         0.140098     -0.543864      1.337133
O       5.77203     13.64635     12.87592        -0.179247      0.087600     -0.607136
O       5.76470      1.94102      4.53301         0.452962      0.048069     -0.086653
O       5.68265     13.79611      4.59877         0.185412     -0.458531     -0.002175
O       5.77039      1.88084      8.65411         0.502010      0.343775      0.511064
O       5.95399     13.58840      8.58921        -0.068108     -0.027053      2.258555
O       5.71938      5.80440      0.26734        -0.372841      0.483777      1.703069
O       5.96012      5.73349     12.98562        -0.286870     -0.007489      0.158717
O       5.78976      5.80820      4.48011         0.242807      0.324288     -0.927547
O       5.74484      6.04719      8.81869        -0.051011     -0.340747     -0.916420
O       5.62838      9.82801      0.39465         0.286210      0.089684      0.009965
O       5.74341      9.76349     12.90952         0.058268      0.070267     -1.736105
O       6.03562      9.70964      4.61292        -0.491362     -0.295720      0.612880
O       5.85764      9.68154      8.77562         0.250440     -0.031360     -0.122600
O       9.78668      1.87088      0.43558        -0.253828      0.419007      0.162127
O       9.78078      1.83198     12.89789        -0.290320     -0.296009     -0.817663
O       9.65135     13.47851      0.44723         0.083462      0.233697      0.103621
O       9.69612     13.57094     12.92325         0.277679      0.240255     -0.092601
O       9.58103      1.95176      4.47667         0.288843     -0.044970      0.547631
O       9.61766     13.74041      4.71317         0.631159     -0.275045     -1.289841
O       9.67480      2.00951      8.73145         0.210258     -0.074934     -0.613407
O       9.67805     13.65618      8.72312        -0.186416     -0.277442     -0.376742
O       9.76564      5.95512      0.33169        -0.122843     -0.186480      0.192580
O       9.68000      5.82706     12.95869         0.123565     -0.359419     -0.264663
O       9.59800      5.82908      4.51719         0.136189      0.380895      0.521665
O       9.76574      5.88614      8.66357        -0.403127      0.067071     -0.229780
O       9.52745      9.75096      0.31689         0.964881      0.065366      1.742088
O       9.77352      9.93415     12.86552         0.175374     -0.721547      0.009243
O       9.52537      9.63464      4.53663         0.387872     -0.180500     -0.114833
O       9.85299      9.74609      8.74898        -0.354601     -0.502342      0.135613
O       3.86304      1.84990      2.53738        -0.698267      0.183431     -0.217916
O       3.84154      1.83662     14.82458        -0.361940     -0.040892      0.475762
O       3.81066     13.82130      2.51869         0.283310     -0.360625      0.049501
O       3.77205     13.76622     15.16657         0.486812     -0.017318     -1.149317
O      15.56112      2.06888      2.61822         0.212188      0.103835     -0.576131
O      15.57625      2.11474     14.82022         0.921786     -0.118638      0.360892
O      15.57348     13.65252      2.60893        -0.601873     -0.140262      0.172112
O      15.54982     13.51821     14.93460         0.257074      0.040918      0.268417
O       3.98981      2.02225      6.69147        -0.909438     -0.229873     -0.238955
O       3.94736     13.61116      6.89871        -0.485158     -0.006909     -0.926126
O       0.03883      1.84781      6.72254        -0.607679      0.008358      0.254210
O      15.53030     13.74819      6.66570         0.762415     -0.697530     -0.087095
O       3.96508      1.92933     10.79955        -1.179312     -0.415443     -0.004175
O       3.86876     13.75031     10.82074         0.373043     -0.159564     -0.301688
O      15.57013      2.01216     10.63072        -0.386459     -0.126971     -0.005877
O       0.01998     13.37087     10.75691        -0.828445      0.513779      0.047615
O       3.83249      6.00348      2.53792        -0.198786      0.378432      0.034883
O       3.83727      5.95808     14.84203        -0.439720      0.349815      0.596661
O       0.04345      5.77503      2.67824        -1.273546      0.032971     -0.379725
O      15.54395      5.79703     15.06659         0.090652     -0.091521     -0.083978
O       3.88148      5.69465      6.62669        -0.066185      0.938797     -0.431066
O      15.58764      5.82885      6.78890        -0.036929      0.242469     -0.356107
O       3.90601      5.84013     11.00490        -1.134113      0.286129     -0.479190
O       0.03944      5.84518     10.66819         0.211187      0.044936      0.015692
O       3.85356      9.82884      2.62668        -0.262793     -0.700372     -0.162463
O       3.87381      9.64854     14.94793        -1.197815      0.257990      0.045843
O      15.52940      9.84827      2.60714         0.307517     -0.237848     -0.199249
O      15.48913      9.74080     15.07569         1.278346      0.371874     -0.502422
O       3.97741      9.72612      6.67519        -0.461717      0.192099     -0.377420
O       0.04098      9.86397      6.54269        -0.172268     -0.474129      0.004146
O       3.86518      9.62703     10.76030        -0.101693      0.626147      0.209487
O      15.54032      9.81092     10.71355         0.764651      0.204274      0.372261
O       7.68862      1.95883      2.45557         0.629533      0.401356      0.251704
O       7.76210      1.93111     15.05086        -0.115155     -0.102407     -0.446114
O       7.75190     13.48624      2.49522        -0.190002      0.408175      0.196140
O       7.79009     13.58884     15.00517        -0.850776      0.074537     -0.379807
O       7.71219      1.90383      6.66124         2.283224      0.753002      0.186966
O       7.72227     13.59315      6.58432         0.485548      0.497905      0.647295
O       7.74033      1.94981     10.79409         0.657014      0.130321      0.186933
O       7.81908     13.53456     10.89516        -0.498816      0.100058     -0.297139
O       7.73330      5.64570      2.35101        -0.542120      0.995807      0.183522
O       7.75650      5.67735     15.09345         1.082430      0.090868     -0.036160
O       7.73673      5.88410      6.67593         1.089726      0.258962     -0.110490
O       7.68306      5.88393     10.76629         1.206945     -0.300841      0.121542
O       7.69880      9.95601      2.40799         0.499785     -0.259069     -0.089394
O       7.70773      9.91327     14.96511         0.591081     -0.412161     -0.499348
O       7.78785      9.49671      6.87911        -0.068157      0.900196     -0.564709
O       7.79675      9.73350     11.01477        -0.601321      0.204534     -0.965403
O      11.64141      2.05229      2.46212         0.751151     -0.502878      0.547669
O      11.79083      1.71166     14.87298        -0.471291      0.393077      0.147594
O      11.66489     13.71230      2.38227        -0.243946     -0.055745      0.944046
O      11.68896     13.64550     15.03600        -0.246245      0.006717      0.100201
O      11.60277      1.84611      6.56956         0.584111      0.215946     -0.115789
O      11.57017     13.60201      6.71243         0.973226     -0.056481     -0.007157
O      11.70304      1.96780     10.83428         0.151007     -0.222152      0.137521
O      11.70574     13.71795     10.75072        -0.553844      0.145175     -0.016773
O      11.58427      5.81969      2.45394         0.482726      0.368559      0.395427
O      11.73777      5.75501     15.01616        -1.152130      0.721447     -0.310614
O      11.59112      5.91038      6.67760         0.837602     -0.167517     -0.634854
O      11.76444      5.80102     10.81778        -1.053266      0.409576      0.382009
O      11.66395      9.56735      2.49264        -0.213816      0.228885     -0.531132
O      11.66746      9.59576     15.14811        -0.434007      0.754623     -0.771804
O      11.68661      9.64455      6.55207        -0.567765      0.027598     -0.155108
O      11.73633      9.63331     10.80810        -0.830702     -0.274007      0.336794
O       2.11272      3.97656      2.37791        -0.437002     -0.851582      0.265205
O       2.04062      3.94699     14.96269        -0.657938     -0.779351     -0.145067
O       1.78819      0.10574      2.53556        -0.106755     -0.604824      0.274273
O       1.64482      0.03887     14.69226         0.237397      0.608804      0.559337
O      13.59739      3.89735      2.74107        -0.019661      0.006417     -0.602025
O      13.52443      3.81093     14.84806         0.345914     -0.215545      0.016464
O      13.70643      0.01600      2.51478        -0.381576      0.713203     -0.014012
O      13.69722     15.55600     15.03149         0.385873      0.012888     -0.224722
O       1.90362      3.85088      6.58627        -0.225676      0.646308      1.224290
O       2.07075     15.54171      6.65386        -0.266841      0.092911     -0.006618
O      13.64390      3.82034      6.72314        -0.023798      0.680334     -0.461252
O      13.55979     15.59011      6.78332         0.058316     -0.702273     -0.243988
O       1.89676      3.88380     10.68487         0.337061      0.509363      0.044451
O       1.74914      0.02135     10.70256         0.535870     -0.571336      0.022430
O      13.67581      3.95447     10.83263        -0.121651     -1.477665     -0.256878
O      13.76188     15.54959     10.56950        -0.235806      0.138003      0.697217
O       1.71010      7.82206      2.60390         0.822719      0.312939      0.046251
O       1.75704      7.86007     15.04502         0.393473     -0.512855     -0.324147
O      13.71535      7.69734      2.57054        -0.284365      1.078945      0.074464
O      13.64267      7.72074     15.05864        -0.054288      0.304384     -0.550413
O       2.06424      7.89090      6.69539        -0.307535     -0.901806     -0.959226
O      13.67762      7.79299      6.53355        -0.015409      0.029349      0.102144
O       1.92267      7.83547     10.62774        -0.332839     -0.549802      0.913911
O      13.69447      7.72314     10.84910         0.143769      0.640392      0.103028
O       1.84457     11.77548      2.30995         0.155847     -0.483510      0.658868
O       1.98181     11.68051     15.00794        -0.262886     -0.053675     -0.054033
O      13.46674     11.69051      2.36319         0.316262      0.025718      0.283893
O      13.57125     11.65364     15.06437        -0.079923      0.453824      0.044142
O       2.07679     11.68638      6.71424        -0.590288     -0.005511     -0.192611
O      13.61966     11.67770      6.46552         0.050479     -0.027798      0.787235
O       2.11691     11.72254     10.73767        -0.191545     -0.900221      0.131446
O      13.52220     11.67234     10.68405         0.160059      0.308618      0.664351
O       5.59405      3.91790      2.35149         0.199622      0.739711      0.566722
O       5.68190      3.86901     15.17327         0.275717     -1.016604     -1.061663
O       5.87322      0.03361      2.54999        -0.131008     -1.151741     -0.126681
O       5.87158     15.56682     15.17382        -0.202077      0.300416     -0.883647
O       5.89597      4.00645      6.73921         0.149673     -0.545534     -0.135139
O       5.87543      0.04541      6.67771        -0.233204     -1.575038     -0.031346
O       5.74571      3.88776     10.80950         0.511265      0.427826     -0.269899
O       5.89211     15.57260     10.68731        -0.034846     -0.490984      0.311206
O       5.82274      7.82814      2.48211        -0.015741     -0.014713     -0.028766
O       5.96077      7.83737     15.05395        -0.373199     -0.111198     -0.231308
O       5.73215      7.70707      6.60642         0.196652      0.744454      0.106874
O       5.72365      7.82179     10.97386         0.647478      0.235320     -0.053752
O       5.68009     11.72575      2.77678         0.431758      0.364166     -1.159805
O       5.68782     11.74666     14.96473        -0.223125      0.415505     -0.289635
O       5.95327     11.62444      6.58699        -0.259594     -0.332518      0.324791
O       5.77009     11.70394     10.80932        -0.023500     -0.467973      0.076983
O       9.59930      3.89393      2.39981         0.568314      0.477402      0.472470
O       9.84099      3.75446     14.85760        -0.125161      0.538359      0.345332
O       9.65656      0.00869      2.46092        -0.332724     -0.804631      0.158482
O       9.73115     15.56844     15.15033        -0.135189     -0.815175     -0.687024
O       9.73547      3.89694      6.57051        -0.413634      0.157904      0.104141
O       9.62890      0.07952      6.74588         0.115551     -0.965409     -0.137411
O       9.68456      3.95863     10.81544         0.147287     -0.135138      0.225831
O       9.58352      0.02880     10.79010         0.577785     -0.696554     -0.072146
O       9.54264      7.81982      2.45621         0.172489      0.075905      0.059764
O       9.60398      7.78799     14.85013         0.156553     -0.002478      0.498857
O       9.58759      7.75753      6.71127         0.864011      0.622754     -0.272318
O       9.59873      7.72616     10.89715         0.674145      0.540172     -0.282839
O       9.88676     11.64849      2.66239        -1.034272      0.049417     -0.997666
O       9.71024     11.64296     14.94441         0.599202      0.616404      0.422889
O       9.56597     11.61597      6.62650         0.546308     -0.554950      0.226723
O       9.79445     11.62913     10.80448         0.148004      0.532672     -0.293671
