  # total energy = -7880.16209803 
CRSYTAL
PRIMVEC
    15.6080000000000005    0.0000000000000000    0.0000000000000000
     0.0000000000000000   15.6080000000000005    0.0000000000000000
     0.0000000000000000    0.0000000000000000   16.6239999999999988
PRESSURE
-0.857047 -1.10345 -1.83153 0.236695 -0.441077 -0.024488
PRIMCOORD
320 1
Pb       3.74728      3.83293      4.16327        -0.083059     -0.003146     -0.347952
Pb       3.75268      3.74732     16.53001         0.426675      0.377905      0.423174
Pb       3.92186     15.45010      4.27723        -0.253428     -0.026051     -0.446265
Pb       4.01496      0.00736      0.02544        -0.334123     -0.108734     -0.512048
Pb       0.02333      3.93246      4.16621        -0.312633     -0.102940     -0.630108
Pb       0.00655      3.93579      0.01539         0.132246     -0.154124     -0.196356
Pb       0.06270     15.56130      4.30593         0.115247     -0.011652     -0.504619
Pb      15.59892     15.58667      0.01183        -0.020936     -0.049087     -0.321733
Pb       4.06440      3.99611      8.26619        -0.210504     -0.036876     -0.460779
Pb       3.88921     15.48756      8.36334        -0.286343      0.327718     -0.850121
Pb       0.06884      3.93379      8.28094         0.127253      0.048505     -0.056405
Pb      15.54622     15.60149      8.38733         0.264973     -0.237418     -0.631638
Pb       3.93598      3.79257     12.36491        -0.321399      0.568460      0.050700
Pb       3.96822      0.15379     12.41500        -0.186213     -0.226442      0.309597
Pb      15.54241      3.93654     12.46756        -0.052280     -0.343279     -0.591960
Pb      15.57404     15.47031     12.30020        -0.397083      0.769389      0.626868
Pb       3.97464      7.68437      4.13161        -0.299513      0.352741     -0.327749
Pb       3.88608      7.85151      0.05224         0.082467      0.066203     -0.391314
Pb      15.46744      7.71230      4.15000        -0.217311      0.278430     -0.353883
Pb      15.60005      7.76900      0.01376         0.003941     -0.223954      0.038170
Pb       3.83382      7.82892      8.30106         0.358409     -0.303552      0.037418
Pb       0.11395      7.81993      8.10544        -0.561109     -0.176069      0.574355
Pb       3.79769      7.77206     12.43240         0.361290     -0.349467     -0.438159
Pb       0.03410      7.74047     12.37192        -0.216429     -0.182383      0.136388
Pb       3.96243     11.59616      4.26714         0.000376      0.370223     -0.257151
Pb       3.88472     11.67946      0.05527        -0.089310     -0.050243     -0.620438
Pb       0.06202     11.62233      4.20436        -0.868215      0.348729     -0.116409
Pb       0.00198     11.55671     16.54194         0.002723      0.520168      0.297874
Pb       3.91399     11.56797      8.41881         0.033061      0.169011     -0.713754
Pb       0.04698     11.73310      8.36179        -0.515128      0.226389     -0.216935
Pb       3.77718     11.68556     12.55348         0.161232      0.000290     -0.143127
Pb      15.38735     11.83069     12.50378         0.583063     -0.275775     -0.328883
Pb       7.88657      4.02533      4.12084        -0.334341     -0.157279     -0.347800
Pb       7.79735      3.76728      0.09685        -0.113024      0.254650     -0.345124
Pb       7.91536      0.05819      4.21262        -0.353681     -0.508111     -0.222883
Pb       7.80836     15.48443     16.54856         0.074154     -0.196881     -0.241904
Pb       7.91508      3.87812      8.14147        -0.144565      0.420088     -0.168454
Pb       7.69939      0.01616      8.26688         0.146465     -0.222509      0.055256
Pb       7.82276      3.98604     12.56835         0.351223      0.148978     -0.715495
Pb       7.75770      0.00232     12.36186         0.401899     -0.035522      0.149119
Pb       7.86641      7.77151      4.18346        -0.257451      0.214361     -0.449680
Pb       7.76644      7.57192      0.09074         0.024398      0.782556     -0.577120
Pb       7.69137      7.74414      8.33218         0.452410     -0.008901     -0.220419
Pb       7.64536      7.98620     12.55386         0.135759     -0.305716     -0.031795
Pb       7.78687     11.61295      4.15849        -0.062175      0.414137     -0.068557
Pb       7.88732     11.62599      0.06523        -0.556547     -0.037973     -0.971095
Pb       7.88583     11.59443      8.45551        -0.242290      0.049140     -0.330602
Pb       7.74074     11.83606     12.48905         0.223346     -0.050778      0.362838
Pb      11.56648      3.90519      3.93367         0.517754     -0.157574      0.359318
Pb      11.61202      3.69422     16.55772         0.429887      0.124039      0.128513
Pb      11.90679      0.05896      4.15970        -0.545132     -0.048818     -0.058536
Pb      11.78949     15.59619     16.59362        -0.296407      0.015400     -0.133870
Pb      11.67721      3.69163      8.15535        -0.219554      0.649265      0.470660
Pb      11.82747     15.48939      8.35759        -0.150059     -0.099696     -0.409134
Pb      11.53470      3.94939     12.33064         0.725274      0.125775      0.235623
Pb      11.66040      0.08866     12.56269         0.078125     -0.454350     -0.058233
Pb      11.65225      8.09393      4.21887         0.445876     -0.458762     -0.448167
Pb      11.78263      7.74158     16.57962        -0.083920      0.088821      0.160925
Pb      11.71164      7.69118      8.34713        -0.108721      0.264038     -0.306139
Pb      11.85745      7.65682     12.42378        -0.376626      0.416798      0.097648
Pb      11.65432     12.00804      4.08481         0.404772     -1.007354      0.046686
Pb      11.56336     11.68485      0.06753         0.558490      0.155655     -0.582936
Pb      11.52254     11.55035      8.21000         0.439072      0.537422      0.654632
Pb      11.68279     11.53944     12.54728        -0.381823      0.191300     -0.302723
Ti       1.90184      1.89696      2.18737        -0.746953      0.319336      0.443900
Ti       1.83591      1.86738     14.61722         0.224410      0.532155     -0.182261
Ti       1.91359     13.61379      2.20584         0.065928      0.403378     -0.172267
Ti       1.91989     13.61620     14.60607        -0.350206     -0.200276      0.606300
Ti      13.64207      1.93799      2.18323        -0.084708      0.477627     -0.332880
Ti      13.54925      1.95837     14.54848         0.104354      0.255868      0.889564
Ti      13.72639     13.71257      2.15845         0.176807     -1.018100     -0.068965
Ti      13.61940     13.60939     14.70248        -0.374193      0.125332      0.068188
Ti       1.84832      1.97273      6.37465         0.972613     -0.655362      0.138316
Ti       1.90186     13.56712      6.35430         0.314250      1.389143      1.046069
Ti      13.64814      2.00431      6.29895         0.293429     -0.829081     -0.178448
Ti      13.64707     13.65650      6.36585        -0.047666     -0.588843     -0.015152
Ti       1.94669      1.91546     10.51805        -0.572482      0.046829      0.738080
Ti       2.00500     13.63570     10.52703        -1.653095     -0.226336      0.762281
Ti      13.55273      1.97705     10.49988         1.372240     -0.179682      1.193203
Ti      13.52837     13.52042     10.55120         0.297429      1.081388     -0.647638
Ti       1.93560      5.93794      2.16769        -1.127029     -1.071692      0.531664
Ti       2.04834      5.75001     14.56035        -0.302059      0.752158     -0.356227
Ti      13.51995      5.87831      2.18406         0.750506      0.098754     -0.174944
Ti      13.69143      5.82897     14.64734        -0.430987     -0.586012     -0.206628
Ti       1.91960      5.85694      6.21763         1.326926     -0.618344      0.829204
Ti      13.65510      5.78325      6.27607         0.351350      0.903926     -0.515017
Ti       1.96107      5.73351     10.49690         0.320299      0.076964      0.217475
Ti      13.59924      5.85863     10.37257         0.521804     -1.115154     -0.120345
Ti       1.84535      9.78412      2.29307         0.403741     -0.532299     -0.429801
Ti       1.93706      9.66712     14.65583         0.148942      0.450622      0.893532
Ti      13.61667      9.75497      2.27739        -1.022876      0.363908     -0.012552
Ti      13.65107      9.66411     14.70891        -0.197481      0.268441      0.071860
Ti       1.86872      9.77080      6.29216         0.541074      0.061632     -0.407194
Ti      13.60355      9.74939      6.41367        -0.038301      0.035361     -0.574800
Ti       1.88680      9.72398     10.58784        -0.352727      0.876865     -0.867450
Ti      13.65539      9.66849     10.39986        -0.649459      0.908889     -0.211720
Ti       5.77994      1.93866      2.21970         0.166468     -0.098829     -0.450603
Ti       5.86565      2.01423     14.61270        -1.070722     -0.481994     -0.038832
Ti       5.80575     13.64953      2.23855         0.382334     -0.491992     -0.242648
Ti       5.76537     13.62157     14.64737         0.660396     -0.237581     -0.459931
Ti       5.72704      1.90929      6.24972         0.121572      0.392560      1.936451
Ti       5.80557     13.62772      6.38697         0.064293     -0.577173      1.154242
Ti       5.88197      2.06709     10.43622         0.153595     -0.117423     -0.522571
Ti       5.78830     13.74778     10.57339         0.794306     -0.448299      0.432044
Ti       5.80903      5.88136      2.13188         0.029363     -0.311507     -1.023896
Ti       5.91071      5.90503     14.60445        -0.298738     -0.218330      1.250809
Ti       5.88234      5.93009      6.27858         0.025863     -0.762602      1.343958
Ti       5.90406      5.90400     10.45114        -1.185083      0.610428     -0.155136
Ti       5.78554      9.74555      2.22947         0.323996      0.004281     -1.335845
Ti       5.82928      9.71707     14.72966         0.703804      1.293087      0.350594
Ti       5.79319      9.80069      6.30766         0.265829      0.685144      1.161647
Ti       5.73759      9.86579     10.60971         0.052771     -1.160784     -0.864684
Ti       9.66192      1.87581      2.17955         0.273246      0.332337     -0.018049
Ti       9.65204      1.90921     14.64401         0.756903     -0.490504      0.105898
Ti       9.68848     13.66734      2.21092        -0.127361      0.380066     -0.532076
Ti       9.80021     13.65203     14.64479        -0.778316     -0.060641     -0.131321
Ti       9.73334      1.75945      6.37417         0.003463      0.811682     -0.815128
Ti       9.71478     13.58106      6.30014        -0.506605      0.711400      0.104995
Ti       9.77934      1.97373     10.45657        -1.103782      0.008377     -1.060330
Ti       9.78468     13.64321     10.50644        -1.415444     -0.481096     -0.096384
Ti       9.73599      5.92648      2.11145         0.461495     -0.726011      0.390637
Ti       9.82140      5.81912     14.62625        -1.696461      0.718051     -0.749193
Ti       9.92360      5.81715      6.28414        -2.002859      0.165996      1.389155
Ti       9.67266      5.97093     10.47078         0.283135     -1.412536     -1.151873
Ti       9.71345      9.74660      2.13488         0.065141      0.249560      1.133379
Ti       9.76329      9.68861     14.63628        -0.758344     -0.323521      0.211557
Ti       9.68718      9.70108      6.32484        -0.386590      0.215415      0.575829
Ti       9.65796      9.75100     10.61610         1.164053      0.570349     -1.279904
O       1.92110      2.03595      0.40227        -0.566911     -0.094868     -0.409949
O       1.95040      2.05263     12.82817         0.016160     -0.299711      1.081447
O       1.82061     13.63125      0.43859         0.048456      0.122651     -0.330463
O       1.82757     13.64398     12.80226         0.607411     -0.336321      1.037773
O      13.46564      1.84509      0.37050         0.415371      0.530185      0.659424
O      13.47289      2.12717     12.80988         0.035202     -0.360720     -0.589468
O      13.75559     13.75039      0.33145        -0.353155     -0.232871      0.759517
O      13.47886     13.49481     12.91692         0.073268      0.088526     -0.463719
O       1.82193      1.98871      4.57529         0.117160     -0.100022     -0.038607
O       1.81841     13.60324      4.59055         0.182776      0.158919     -0.608605
O      13.69637      1.89464      4.51909        -0.330978     -0.084421     -0.758270
O      13.54901     13.58318      4.55610         0.435724      0.756884      0.310880
O       1.79202      1.85445      8.77442         0.119279      0.118270     -1.091289
O       1.84654     13.66488      8.77083        -0.086801      0.172190     -0.477594
O      13.54437      1.85912      8.71746         0.089290      0.165954     -0.149614
O      13.63172     13.66303      8.74114        -0.054274      0.219491      0.274996
O       1.97077      5.78184      0.38842        -0.056422      0.317785     -0.374573
O       1.90786      5.84898     12.70112         0.123829     -0.150057      1.487451
O      13.45400      5.95638      0.37369         0.212942     -0.554992     -0.305716
O      13.60189      5.84238     12.81797         0.242179      0.395484      0.234438
O       2.05750      5.72934      4.43571        -0.385209      0.706627      0.640663
O      13.82375      5.91296      4.48189        -0.747262     -0.177261      0.085164
O       1.86896      5.85248      8.71105         0.104978     -0.017194     -0.313012
O      13.67783      5.85254      8.58134         0.086701     -0.452973      0.448892
O       1.92007      9.70428      0.51927        -0.310194      0.067491     -0.545255
O       1.97042      9.75191     12.89968        -0.434336      0.000070     -0.817865
O      13.49528      9.74001      0.48704        -0.153943      0.045831     -0.611805
O      13.82570      9.43470     12.96482        -0.274876      0.525764     -0.606910
O       1.82822      9.83950      4.48669         0.377839     -0.023587      0.665063
O      13.50603      9.60192      4.57523         0.427425      0.197877      0.656120
O       1.92042      9.63786      8.75463         0.015231      0.574652     -0.087758
O      13.63687      9.70112      8.60870         0.000376      0.068860      0.516134
O       5.81025      1.78110      0.40819        -0.109935      0.410536      0.660043
O       5.67451      2.09744     12.77305         0.941835     -0.224123      1.100589
O       5.82720     13.64491      0.41855        -0.027205      0.184078      0.258918
O       5.72263     13.61892     12.82311        -0.166969      0.097159      0.439627
O       5.70716      2.02791      4.52365         0.031616     -0.339964     -1.621026
O       5.70857     13.46054      4.67404        -0.665753      0.432147     -2.081529
O       5.84478      1.95871      8.63898         0.049812     -0.002522      0.494401
O       5.98095     13.88665      8.81507        -0.475415     -0.562416     -0.386213
O       5.70423      6.06544      0.25143         0.517598     -0.412093      1.775472
O       5.91264      5.87156     12.82501         0.364462     -0.164026     -0.190866
O       5.98191      6.06295      4.50258        -0.356330     -0.463502      0.100172
O       5.69638      5.96026      8.66539         0.422814     -0.007247     -0.242536
O       5.83056      9.70538      0.36916        -0.284065      0.212864      0.833425
O       5.94369      9.77559     12.90769        -0.538934     -0.078250     -0.729447
O       5.76755      9.87853      4.53382        -0.201242     -0.333626     -0.391110
O       5.52674      9.80120      8.80940         0.635038      0.080359      0.025815
O       9.63445      2.05787      0.35585         0.006242      0.036695      0.222212
O       9.65170      1.79602     12.88002         0.043991      0.557175     -1.304164
O       9.65193     13.72456      0.38062        -0.238115     -0.705065      0.637112
O       9.88322     13.64051     12.88011         0.086952      0.249677     -0.522371
O       9.71827      1.68541      4.52144        -0.001526      0.486259      0.357369
O       9.71431     13.78325      4.49663         0.150089      0.238375      0.110278
O       9.83213      2.05638      8.54877        -0.088180     -0.119167      1.384903
O       9.46074     13.46757      8.70955         0.552614      0.151620     -0.121273
O       9.67595      5.64575      0.35674         0.316482      0.484484     -0.757360
O       9.51630      5.92724     12.77392         0.464769     -0.253061      0.423816
O       9.58070      6.09080      4.56301         0.362712     -0.557913     -0.325722
O       9.75635      5.77319      8.63886         0.370180      0.026787      0.294018
O       9.72630      9.91186      0.35068         0.354254     -0.042222      0.202056
O       9.64038      9.51671     12.85176        -0.021680      0.356732     -0.705069
O       9.63849      9.72377      4.53520         0.201829     -0.415006      0.080198
O       9.67455      9.91870      8.71660         0.239088      0.176960      0.324449
O       3.73739      2.02851      2.40016         1.710741      0.050474      0.511932
O       3.83083      1.99359     15.01906         0.346698     -0.478356     -0.406371
O       3.82134     13.67508      2.50884         0.242752     -0.264195      0.319225
O       3.74456     13.64080     15.05703         0.376734      0.041642     -0.419340
O      15.48858      1.98163      2.40644         0.010245      0.161992     -0.077512
O      15.44774      1.99175     14.93136         1.007530      0.397364      0.073582
O       0.02130     13.79825      2.49936        -1.674346     -0.469597      0.251566
O      15.49841     13.50521     14.86870         0.904964      0.499565      0.155711
O       3.85779      1.97897      6.63294        -0.042711     -0.055486     -0.039506
O       3.81824     13.61117      6.69022        -0.400466      0.199335      0.261302
O      15.57408      2.05868      6.64939         0.584479     -0.316179      0.386370
O      15.52301     13.70438      6.75751         0.398525     -0.361616     -0.232937
O       3.92923      1.99965     10.78559        -0.188179     -0.407114     -0.234133
O       3.81802     13.74223     10.71326         1.272441     -0.072636      0.235392
O      15.52296      1.86455     10.90610        -0.416743      0.354810     -0.538532
O      15.53261     13.67913     10.85442        -0.295172     -0.110487     -0.115036
O       3.89634      5.89922      2.49645         0.064506      0.404049     -0.002503
O       3.88139      5.82335     14.82131         0.027100      0.101978     -0.074597
O      15.53220      5.90097      2.30099        -0.090185     -0.058986      0.467186
O      15.57167      5.81870     14.82860         0.051084     -0.247411      0.491364
O       3.87614      5.81302      6.68496         0.424722      0.690982     -0.756547
O       0.05956      5.81026      6.41217        -0.015217      0.238859      0.769612
O       3.90587      5.88521     10.77924        -0.907666      0.140426      0.154911
O       0.01892      5.66579     10.74680        -0.776327      0.612788      0.105734
O       3.79049      9.64877      2.41337         0.791663      0.260777      0.683022
O       3.87725      9.79490     15.06628        -0.470325     -0.469318     -0.250089
O      15.46220      9.74812      2.50233         0.718127     -0.031213      0.259462
O      15.57337      9.64166     15.21507         0.319936      0.206618     -0.885202
O       3.85063      9.97832      6.59037        -0.691872     -0.731696     -0.117625
O      15.54962      9.68568      6.46658         0.955734     -0.198403      0.720906
O       3.81544      9.76953     10.90274         0.127611      0.212289      0.358179
O      15.48513      9.80517     10.73030         0.994746     -0.317693      0.379569
O       7.69491      2.06379      2.43657        -0.055553     -0.165719      0.388996
O       7.72994      1.87451     14.99025        -0.472072      0.138490     -0.254584
O       7.68283     13.69726      2.66008         0.543237     -0.216343     -0.525889
O       7.80842     13.55321     14.84976        -0.882630      0.480700      0.322741
O       7.77967      1.78782      6.57514         0.133086      0.430993     -0.108599
O       7.67794     13.66492      6.44106         1.535520      0.550988      0.681260
O       7.80505      1.94508     10.72913        -0.081475      0.169394      0.068992
O       7.81747     13.66434     11.04514        -1.208417     -0.129870     -0.553344
O       7.83790      5.87446      2.43824        -0.808344      0.143243     -0.063157
O       7.77526      5.94239     15.02239        -0.545439     -0.613932     -0.382362
O       7.83189      5.91337      6.83122        -0.941294      0.132589     -0.987312
O       7.77282      5.86181     10.55625         0.126518      0.020593      0.491263
O       7.69190      9.82627      2.47484         1.584936     -0.221899     -0.069971
O       7.75619      9.84422     14.94810         0.075438      0.069310      0.328166
O       7.75386      9.87579      6.56486        -0.088463     -0.250247      0.372034
O       7.81842      9.85528     10.64609        -1.671660     -0.446178      0.728642
O      11.57384      1.91049      2.45598         0.227072      0.011358      0.296303
O      11.60831      1.91252     14.93503        -0.387492      0.086903      0.180917
O      11.63409     13.76538      2.39604        -0.089776     -0.255009      0.148340
O      11.66145     13.71966     15.10685         0.512826     -0.580871      0.035618
O      11.77064      1.95962      6.58390        -0.844574     -0.143071     -0.063304
O      11.68615     13.61486      6.61016         0.002243      0.290864      0.380198
O      11.63736      1.93210     10.82288        -0.502030     -0.054501     -0.119024
O      11.60313     13.60387     10.60485         0.952955     -0.104135      0.335342
O      11.64853      5.96862      2.50188        -1.011030     -0.577005      0.286344
O      11.61053      6.00278     14.68261         0.340970     -0.166416      0.573506
O      11.74872      5.72806      6.51924        -0.067652      0.527143      0.032859
O      11.69721      5.84255     10.66913         0.186327      0.241620      0.529926
O      11.63965      9.88116      2.68683        -1.348284     -0.419170     -0.895392
O      11.69869      9.64530     14.69312        -0.385007      0.061143      0.799540
O      11.69899      9.81947      6.71891        -0.893767     -0.661509     -0.559303
O      11.66965      9.87849     10.83929         0.624233     -0.969075     -0.058130
O       1.77534      3.95448      2.58352         0.636623     -0.355019     -0.500201
O       1.97238      3.87610     14.95214        -0.733129      0.464888     -0.029607
O       1.79993      0.03244      2.59702         0.584025      0.097247     -0.217661
O       1.84359      0.03153     15.04313        -0.124639     -0.729596     -0.548389
O      13.41222      3.94126      2.41954         0.507478     -0.770379     -0.031280
O      13.34303      3.92190     14.90000         0.920463      0.569293      0.433421
O      13.59754     15.58016      2.46463         0.005089      0.446314      0.232604
O      13.52545      0.03345     14.83955         0.262907     -0.598140      0.019818
O       2.03773      3.89851      6.60662        -0.690994      0.244893      0.233748
O       1.89858     15.52917      6.68658        -0.178895      1.090105     -0.174895
O      13.74282      3.88929      6.42297        -0.240625      0.458002      0.940223
O      13.76323      0.06310      6.59214        -0.662091     -1.051095      0.325210
O       1.99032      3.80751     10.77057        -0.261438      1.158130     -0.132602
O       1.96910      0.07018     11.04055        -0.084040     -0.929813     -1.007865
O      13.53292      3.90431     10.71869         0.199128     -0.377443     -0.106165
O      13.43888     15.53998     11.04493         0.555264      0.283154     -1.019628
O       1.74817      7.82242      2.60625         0.784707     -0.474745     -0.347810
O       1.94159      7.80138     14.87313        -0.035672     -0.957471      0.295356
O      13.40831      7.81299      2.47470         0.732294      0.400639      0.296988
O      13.58585      7.74147     15.10989         0.421094     -0.113981     -0.311749
O       2.02686      7.83602      6.56722        -0.305731     -0.236289     -0.267299
O      13.63756      7.71045      6.73672        -0.102541      0.312098     -0.486704
O       1.86062      7.88787     10.82535         0.148198     -1.292273      0.187887
O      13.62676      7.78428     10.64118         0.043571     -0.509431      0.424523
O       1.74866     11.72338      2.55559         0.481881     -0.319758     -0.286875
O       1.93840     11.62251     15.02578        -0.391971      0.759642     -0.238458
O      13.54138     11.72046      2.63361         0.486637      0.848791     -0.796963
O      13.58226     11.59538     14.90827        -0.041603      0.284481      0.353226
O       1.80801     11.71275      6.66887        -0.228991     -0.919677      0.149620
O      13.73964     11.64964      6.70778        -0.203692      0.462364     -0.271508
O       1.87260     11.72292     10.81458         0.261451      0.040047      0.118605
O      13.63670     11.65961     10.84712        -0.161227      0.139371      0.105174
O       5.87597      4.01157      2.44142        -0.358376     -0.762630     -0.080596
O       5.90314      3.86069     15.04452        -0.103304      0.316947     -0.541384
O       5.70864     15.54375      2.55712        -0.016917      1.321770      0.175006
O       5.66749     15.54751     14.82760         0.415718      0.777264      0.498550
O       5.85278      3.99880      6.55970         0.172052     -0.429693      0.031415
O       5.67058      0.00309      6.62195         0.223586      0.061762     -0.170212
O       5.77525      3.99929     10.66911         0.347437     -1.097113      0.272278
O       5.80209      0.05127     10.83508         0.133946      0.114159      0.153580
O       5.93986      7.80951      2.50469        -0.689113      0.090039      0.125875
O       5.83437      7.85963     14.88030        -0.151582     -1.060383     -0.119481
O       5.79706      7.92577      6.63816        -0.132377     -0.669293     -0.056409
O       5.77784      7.85300     10.72545         0.368218      0.245304      0.757502
O       5.87496     11.66128      2.55822        -0.967009      0.427899     -0.300966
O       5.66738     11.75094     14.90999         0.065047     -0.281002      0.437264
O       5.72087     11.73536      6.78201         0.383287     -0.311005      0.194525
O       5.72307     11.75284     10.83418         0.138927      0.188425     -0.106088
O       9.71752      3.97824      2.54575        -0.156648     -0.628049      0.210393
O       9.63379      3.86628     14.70800         0.060236      0.760123      0.540060
O       9.51829      0.04746      2.32483         0.023401     -0.509315      0.231638
O       9.71022      0.01881     14.90011        -0.255115     -0.581462      0.603803
O       9.73712      3.91384      6.42464        -0.178690     -0.187064      0.217102
O       9.84393     15.58115      6.74252        -0.282926     -0.579568      0.011004
O       9.76144      3.90968     10.75267        -0.370987     -0.942954      0.380157
O       9.64518     15.53250     10.68262         0.401177      1.329706      0.086751
O       9.69305      7.82672      2.35392        -0.068023      1.046029     -0.081127
O       9.61165      7.81100     15.04783         0.310959     -0.209044      0.058284
O       9.71481      7.88088      6.80868         0.449701     -0.575644     -0.646315
O       9.80408      7.75773     10.55510        -0.159223      1.590218      0.511414
O       9.69505     11.74917      2.52794        -0.221404      0.125463     -0.500215
O       9.79218     11.70299     14.83267         0.355668     -0.565112      0.702536
O       9.71904     11.74601      6.44289         0.093712     -0.523096      0.639942
O       9.70414     11.66701     10.93084        -0.012406      0.210662      0.195888
