  # total energy = -7881.32106744 
CRSYTAL
PRIMVEC
    15.6080000000000005    0.0000000000000000    0.0000000000000000
     0.0000000000000000   15.6080000000000005    0.0000000000000000
     0.0000000000000000    0.0000000000000000   16.6239999999999988
PRESSURE
-0.457346 -0.462808 -0.394524 -0.037988 -0.043485 -0.069811
PRIMCOORD
320 1
Pb       3.77670      3.82542      4.09437         0.383884     -0.133959     -0.224819
Pb       3.75074      3.75220      0.00673         0.060298      0.028305      0.096743
Pb       3.92449     15.44342      4.29347        -0.004025      0.520557     -0.289273
Pb       3.97342     15.57353      0.09599        -0.361072     -0.068683     -0.520368
Pb      15.54269      3.85149      4.15035        -0.250524      0.040048     -0.371002
Pb      15.56100      3.96225     16.58017         0.163416     -0.687415      0.170118
Pb       0.11969     15.60542      4.26183        -0.232473      0.075399     -0.179530
Pb       0.00895     15.53996      0.02197         0.524520      0.294943     -0.149115
Pb       4.01036      4.04238      8.33340         0.358946      0.065440     -0.113308
Pb       3.88485      0.09617      8.50487         0.068480     -0.308466     -0.320384
Pb       0.10452      3.93449      8.21792        -0.672284      0.111923      0.972655
Pb       0.04347      0.09427      8.31785         0.170771     -0.725268      0.320900
Pb       3.94294      3.95575     12.30339        -0.480442     -0.289920      1.268708
Pb       3.90719      0.06999     12.31365        -0.286981     -1.209698      0.632618
Pb      15.50662      3.73585     12.25325        -0.117182      1.066641      0.588977
Pb      15.42066     15.59372     12.34923         0.947970     -0.425841      0.231966
Pb       3.90586      7.68507      4.25379        -0.400820      0.431390     -0.507259
Pb       3.83087      7.82745      0.00806        -0.434854      0.089303      0.501484
Pb      15.54024      7.77414      4.09045         0.001708     -0.068745      0.381005
Pb       0.02557      7.79382      0.02767        -0.074409      0.020431     -0.485285
Pb       4.00685      7.85840      8.24530        -0.565581     -0.336269     -0.128825
Pb       0.16337      7.86133      8.05088        -0.235057      0.189239      0.648152
Pb       3.74804      7.84203     12.50871         0.092653     -0.026727     -0.032092
Pb       0.02773      7.75039     12.39774         0.021625     -0.046768     -0.017159
Pb       3.99727     11.62416      4.27881        -0.161178     -0.067667     -0.604426
Pb       3.91122     11.64207     16.57078        -0.277601      0.226704     -0.601393
Pb       0.07095     11.74250      4.23019        -0.383821     -0.002276     -0.039022
Pb       0.04544     11.67489      0.02871         0.188266      0.152857     -0.471631
Pb       3.89162     11.48117      8.27163        -0.137845      0.586559      0.696514
Pb      15.49955     11.72447      8.38734         0.155152     -0.054057     -0.555951
Pb       3.77941     11.77116     12.61237         0.061233      0.186107     -0.407186
Pb      15.40010     11.65668     12.40535         0.521812     -0.105135      0.217522
Pb       7.81059      4.06373      4.11733        -0.270068     -0.983107     -0.002615
Pb       7.67576      3.68669      0.09285        -0.074970     -0.021375     -0.482588
Pb       7.79319      0.03760      4.12536         0.287312     -0.345684     -0.234517
Pb       7.80803     15.38227     16.57362        -0.446182      0.621746      0.607808
Pb       7.82485      3.99519      8.11705        -0.031234     -0.493327      0.558073
Pb       7.73194     15.54890      8.41798         0.750461      0.309353      0.074017
Pb       7.75956      4.17758     12.44584         0.492943     -1.978683      1.315718
Pb       7.81953      0.12207     12.46634         0.478039     -0.169600     -0.266437
Pb       7.65851      7.76837      4.03406         0.299014      0.386413      0.276553
Pb       7.92676      7.72598     16.60389        -0.207698      0.316164      0.047907
Pb       7.72912      7.79432      8.43449         0.540065     -0.065201     -0.482569
Pb       7.73106      7.91809     12.57831         0.460008     -0.074396     -0.032300
Pb       7.73507     11.69245      4.12168         0.305220      0.315768     -0.555884
Pb       7.88401     11.49841      0.02384        -0.282516      0.212239      0.016363
Pb       7.65029     11.59631      8.41288         0.628192      0.008291      0.427873
Pb       7.70274     11.71358     12.55627        -0.276697      0.256533     -0.185707
Pb      11.57434      4.03378      4.04537         0.609416     -0.466730      0.337738
Pb      11.66252      3.68873     16.37815         0.444408      1.072912      1.119414
Pb      11.94902      0.22087      4.20300        -0.812308     -0.652845      0.021524
Pb      11.75546     15.56542      0.05024        -0.141941     -0.300395     -0.015397
Pb      11.71072      3.68017      8.09376        -0.531334      0.119028      0.868210
Pb      11.70678     15.38441      8.23594        -0.570535      0.530615      0.423092
Pb      11.55802      3.93677     12.39717         0.118102     -0.320621     -0.389912
Pb      11.89033     15.60719     12.53957        -0.944080     -0.282400     -0.975398
Pb      11.67674      7.90503      4.09056         0.269965      0.041105     -0.060566
Pb      11.66457      7.72984     16.55390         0.180490      0.043293     -0.033292
Pb      11.72907      7.78136      8.14520        -0.630626      0.616681      0.198260
Pb      11.89985      7.51509     12.40751        -1.107699      1.258125      0.483622
Pb      11.50211     12.05173      4.15079         0.519385     -0.542035      0.219980
Pb      11.77415     11.77977      0.00787        -0.282316     -0.216925      0.395228
Pb      11.60014     11.51286      8.09596         0.159432      0.224120      0.621036
Pb      11.60548     11.55865     12.46841         0.100187     -0.242810     -0.314996
Ti       1.91629      1.87175      2.17521         0.129102      0.115315     -0.343275
Ti       2.01293      1.91078     14.46779        -1.198804     -0.131298      2.646107
Ti       1.89557     13.61243      2.24549         0.280098      0.524611     -0.668788
Ti       1.91225     13.78874     14.62068         0.431730     -1.244094      0.493540
Ti      13.67584      2.00269      2.14674         0.226625     -0.095445      0.958384
Ti      13.69834      1.86409     14.64376         1.560393      0.365328     -0.000488
Ti      13.66213     13.71470      2.29685        -0.679558     -0.701731     -0.228758
Ti      13.62742     13.65908     14.76127         0.519474     -0.619244     -1.012696
Ti       2.11994      1.94793      6.46466        -0.589152     -0.449831     -0.158787
Ti       2.02180     13.67526      6.45968        -0.885143     -0.186061      0.162421
Ti      13.78083      1.89191      6.47399        -1.396438      0.381865     -1.152103
Ti      13.65540     13.65919      6.39453         0.035568     -1.116383     -0.850381
Ti       1.94810      2.06772     10.43343        -0.792836     -1.038604     -0.205491
Ti       1.84606     13.67262     10.47440         0.630807     -0.438562      1.451341
Ti      13.59718      1.91991     10.41183        -0.645692      0.112186      0.723980
Ti      13.62235     13.52017     10.41785        -1.105476      0.890704     -0.119535
Ti       1.92961      5.85030      2.27327        -0.013465      0.020440     -0.506362
Ti       1.83228      5.79755     14.69905         0.602275      0.732488     -0.598925
Ti      13.64517      5.84317      2.23693        -0.536082      0.173831     -1.142281
Ti      13.62148      5.77931     14.66108        -0.372495      0.503368      0.047102
Ti       1.88583      5.75316      6.37396         0.668390      2.013361     -0.581917
Ti      13.52655      5.79543      6.48743         1.383974      0.418873     -1.064002
Ti       2.00749      5.86553     10.48913        -1.950602      0.871286     -0.447603
Ti      13.64530      5.86902     10.41218         0.759714     -0.875151      0.382085
Ti       1.95122      9.76692      2.27279         0.892340     -0.335554     -0.207034
Ti       1.85572      9.77770     14.62343         0.286757      0.394741      0.449253
Ti      13.75489      9.81897      2.15127        -1.412849      0.230770      0.103395
Ti      13.57305      9.76091     14.69628         0.342589     -0.393621     -0.098356
Ti       1.96283      9.89149      6.33066        -0.379031     -1.613832      0.143192
Ti      13.67573      9.78926      6.19975        -0.004460     -0.306650      0.865857
Ti       2.00941      9.76562     10.51962        -0.726016      0.010254     -0.048107
Ti      13.66141      9.70046     10.42074        -0.496605      0.113911      0.206009
Ti       5.78224      1.89910      2.28155         0.298481      0.252431      0.373888
Ti       5.78811      1.87776     14.68942         0.302293     -0.057197      0.461716
Ti       5.74708     13.68519      2.21348         1.106604     -0.647651      0.299101
Ti       5.81809     13.66046     14.69718        -0.810148     -0.405287     -0.913112
Ti       5.88350      1.86261      6.40860         0.532421      1.164214     -1.113718
Ti       5.84899     13.61320      6.51838        -0.416302      0.311674     -1.125426
Ti       5.79999      1.88506     10.54592         1.459501      0.351831      0.331588
Ti       5.77049     13.57608     10.49460         0.148880     -0.345175      2.584602
Ti       5.76942      5.76041      2.16512        -0.481135      0.736604      0.413403
Ti       5.66600      5.79087     14.82397         0.296300     -0.430413     -0.322658
Ti       5.78726      5.85094      6.24890         0.682444     -0.335181      0.402997
Ti       5.85360      5.81926     10.70824        -0.320191      1.005171     -2.070810
Ti       5.79334      9.69146      2.20232         0.228361     -0.141230     -0.391040
Ti       5.77232      9.59305     14.73191         0.295772      1.580355     -1.174634
Ti       5.94049      9.74155      6.37380        -0.783292     -0.932244     -0.879220
Ti       5.85258      9.68411     10.62774        -0.651545      0.596213     -0.054733
Ti       9.74080      1.95439      2.18801        -0.193773     -0.334582      0.585146
Ti       9.74526      1.84129     14.77314        -1.295881      0.114549     -2.112778
Ti       9.66747     13.68605      2.18230         0.194365     -0.080998      0.631958
Ti       9.66317     13.64113     14.71617         0.422978     -0.710249     -0.475019
Ti       9.73470      1.95900      6.21609         0.097616     -0.522718      0.911985
Ti       9.60815     13.68258      6.48753         0.957160     -0.032841     -1.687968
Ti       9.71952      1.90636     10.46178         0.043280     -0.373735      0.441276
Ti       9.72638     13.54001     10.54015        -0.019548      1.024658     -0.727527
Ti       9.71160      5.91638      2.20295         0.457234     -0.446081     -0.372033
Ti       9.65861      5.74769     14.76330         0.173894      0.671349     -0.783667
Ti       9.72284      5.86120      6.29391        -0.505473      1.225189      0.546247
Ti       9.69784      5.79029     10.42574         1.120993      0.622401      0.670159
Ti       9.76085      9.76027      2.32445         0.007789      0.099959     -0.592487
Ti       9.79329      9.77753     14.75769        -0.628421     -0.552690     -0.915782
Ti       9.62410      9.76812      6.30689         0.926097     -1.339286     -1.214244
Ti       9.73289      9.60102     10.64545         1.034835     -0.037631     -0.275201
O       2.07074      1.84291      0.39009        -0.389384      0.024419      1.134960
O       1.88896      1.99018     12.75374         0.165214      0.085363     -1.337929
O       1.93302     13.75347      0.44358        -0.025507     -0.380787      1.115842
O       1.92330     13.65496     12.85137        -0.069072     -0.172914     -0.099837
O      13.78419      1.93029      0.40849        -0.563110      0.125530     -0.935810
O      13.76753      1.72783     12.81054        -0.331486      0.259109      0.815904
O      13.68804     13.61571      0.47074        -0.274895      0.297998      0.136486
O      13.77776     13.81251     12.91041        -0.498665     -0.370704      1.126117
O       1.96176      1.86166      4.69765        -0.187636      0.299514     -0.460580
O       1.90282     13.66772      4.65833         0.406996      0.166554     -0.210041
O      13.59613      1.87820      4.67074         0.893327      0.131865      0.127198
O      13.49712     13.58830      4.55140         0.809050      0.395055      0.481784
O       2.01250      1.98962      8.62476         0.006654     -0.244389      0.610642
O       1.76692     13.71006      8.74233         0.529925     -0.363461     -1.093547
O      13.56281      1.93414      8.65717         0.151601     -0.173939     -0.861441
O      13.61759     13.48250      8.62057         0.037883      0.442781      0.261208
O       1.92489      5.88452      0.46400        -0.426916      0.047044      0.565320
O       1.78193      5.89787     12.90367         0.330957     -0.422641      0.342192
O      13.71049      5.82297      0.42173        -0.236943      0.070500      0.355241
O      13.66087      5.75673     12.89055        -0.144892      0.112139     -0.549163
O       1.94710      5.85857      4.56841        -0.304884     -0.730201      0.438005
O      13.65727      5.78958      4.72346         0.024451      0.143318     -0.689747
O       1.96235      5.89966      8.68965         0.403751      0.080652      0.055293
O      13.62864      5.79662      8.67596        -0.125399      0.177460     -0.813647
O       2.00624      9.78442      0.47431        -0.271716      0.003708      0.084874
O       1.92216      9.70580     12.83810         0.106573      0.101734      0.101687
O      13.72941      9.80353      0.30626        -0.095669     -0.188356      1.018031
O      13.42180      9.84399     12.91370         0.591875      0.127121      0.219727
O       1.91604      9.83896      4.58384         0.407098      0.288513     -1.082803
O      13.64633      9.72033      4.44585        -0.016407      0.252359      0.043653
O       1.91463      9.70586      8.72062         0.236402      0.084638     -0.558461
O      13.67715      9.71559      8.64664        -0.182371      0.165480      0.226861
O       5.72766      1.98232      0.52090         0.018555      0.055703     -0.981044
O       5.66864      1.69791     12.94382         0.439004      0.559426     -1.061373
O       5.85171     13.69489      0.46384        -0.346482     -0.054028     -0.317016
O       5.83165     13.69977     12.88454         0.010894     -0.013969     -0.235221
O       5.91118      1.99244      4.58138        -0.196528     -0.613247      1.234288
O       5.80182     13.69170      4.67559         0.080476     -0.224953      0.779477
O       5.78100      1.97871      8.79938        -0.000695      0.138669     -0.995592
O       5.93232     13.59436      8.79866        -0.335890     -0.247087     -2.685051
O       5.59254      5.87388      0.39412         0.644665     -0.523928     -0.035697
O       5.64780      5.74820     12.99093         0.406220      0.143389     -0.162465
O       5.81352      5.87769      4.47009        -0.127669     -0.305622      0.609286
O       5.81070      5.85258      8.87262        -0.054355     -0.234113      0.677179
O       5.69901      9.69231      0.38482         0.397547      0.452023     -0.283464
O       5.80311      9.71964     12.82794         0.012606     -0.525821      1.446089
O       5.88610      9.59395      4.56957        -0.008198      0.849753      0.506298
O       5.95287      9.66620      8.78709        -0.433093     -0.034838     -0.492323
O       9.78191      1.84348      0.38952         0.071444      0.327843      0.086725
O       9.67129      1.77793     12.94537         0.276683      0.409868      1.029289
O       9.73516     13.60755      0.39847        -0.138445      0.329808     -0.163490
O       9.58645     13.59505     12.93081         0.315322     -0.005550     -0.112836
O       9.65217      2.11865      4.44223         0.194443     -0.733705      0.227574
O       9.60730     13.58102      4.60389        -0.057837     -0.386382      0.809683
O       9.71425      1.93316      8.70296         0.055295     -0.028351     -0.204789
O       9.78164     13.78565      8.66703        -0.042214     -0.607080      0.794990
O       9.68503      5.90549      0.39742        -0.008988      0.175146      0.184387
O       9.75516      5.68190     12.95627        -0.157846      0.123522      0.133674
O       9.76271      5.83328      4.51398        -0.179189     -0.248960     -0.099857
O       9.64449      5.99055      8.69223        -0.052562     -0.515149     -0.433196
O       9.57080      9.67989      0.51675        -0.014562     -0.042275     -1.098036
O       9.86129      9.82330     12.95592        -0.480083      0.083264     -0.268196
O       9.53050      9.71139      4.46268         0.257306      0.301227      1.033663
O       9.72989      9.52248      8.88432        -0.240147      0.321354     -0.846518
O       3.87223      1.82246      2.59763        -0.660497      0.027085      0.212931
O       3.85575      1.75036     15.00791        -0.123802      0.594825     -0.357032
O       3.84400     13.86379      2.55467        -0.086489     -0.697256     -0.000160
O       3.92830     13.81433     15.01732        -1.013203     -0.047451      0.034249
O       0.01146      2.06899      2.47590        -0.101422     -0.387831      0.501475
O       0.04084      1.90589     14.96004        -0.677394      0.494759     -0.247188
O      15.52588     13.55499      2.58452         0.524671      0.254767      0.097437
O       0.05959     13.47854     15.08621        -1.087890      0.655490     -0.263733
O       3.96892      1.89421      6.72062         0.182595      0.597641     -0.069339
O       3.91071     13.52197      6.76966         0.693691      0.503080      0.095475
O       0.01014      1.89313      6.76832         0.439418      0.168180     -0.334821
O       0.09100     13.49496      6.67636        -0.894627      0.484345     -0.136872
O       3.79866      1.86726     10.81075         0.543680      0.520171     -0.291822
O       3.86462     13.67225     10.83314        -0.264198     -0.229450     -0.378519
O       0.01020      2.05666     10.64865         0.028642     -0.569796     -0.114681
O      15.48139     13.42361     10.74172         1.205349      0.345232      0.124066
O       3.83801      5.85094      2.63851         0.031930     -0.169511     -0.315801
O       3.73741      6.10016     15.10407         0.899771     -1.375222     -0.971254
O      15.50802      5.80688      2.52527         1.126040      0.050929      0.475225
O      15.54558      5.78775     15.04835        -0.114989      0.131447      0.041549
O       3.91784      5.88615      6.70894        -0.055387     -0.674550     -0.220055
O       0.03288      5.86615      6.74512        -0.067869     -0.329647     -0.369436
O       3.81492      5.86700     10.94756         1.175298     -0.030976     -0.306150
O      15.55672      5.82619     10.68951        -0.150389     -0.211163      0.386050
O       3.86656      9.59157      2.55712         0.143233      0.895958      0.434420
O       3.82665      9.82449     14.92581         1.048106     -0.996706      0.107059
O       0.06679      9.82605      2.43371        -1.410193     -0.302591      0.319490
O      15.58369      9.89544     14.94845        -0.524061     -0.111261     -0.079878
O       3.94936      9.85160      6.58682         0.517896     -0.472891      0.357814
O       0.01635      9.89348      6.43251        -0.477883     -0.216071      0.719140
O       3.87668      9.60209     10.73666         0.174553     -0.319128      0.277844
O      15.58741      9.80454     10.86400        -0.656654     -0.181950     -0.166174
O       7.73447      1.99987      2.38583         1.221068      0.122890      0.267406
O       7.79104      2.00726     15.00799        -0.051028     -0.144316      0.317229
O       7.75211     13.56098      2.46972         0.107057      0.336558      0.265552
O       7.69578     13.59727     15.00846         1.718089      0.093554      0.282997
O       7.86150      1.96680      6.68140        -0.789471     -0.171826     -0.029598
O       7.78851     13.63024      6.85946        -1.149201     -0.158710     -0.214063
O       7.69041      1.99785     10.88476         0.207459     -0.275980     -0.084627
O       7.75284     13.49855     10.76439         0.400819      0.287739      0.196207
O       7.71233      5.75031      2.50162         0.323122      0.258541     -0.501358
O       7.71488      5.77017     14.98372        -0.144910     -0.092596      0.163890
O       7.77755      5.82638      6.58887        -0.073780     -0.168723     -0.101127
O       7.82390      5.75799     10.91299        -1.071317      0.789172     -0.495401
O       7.73159      9.72233      2.44954        -0.773919      0.112236      0.275074
O       7.79117      9.76908     14.86285        -0.958024     -0.001346      0.585565
O       7.78720      9.68817      6.80104        -0.535114     -0.124006     -0.127312
O       7.76355      9.71410     10.86693         0.167768     -0.107288      0.618340
O      11.75932      1.93934      2.48056        -0.926906     -0.028993     -0.101526
O      11.70940      1.82079     14.92397         0.470649     -0.256455      0.197268
O      11.66806     13.68031      2.54879         0.008575      0.238863     -0.424271
O      11.68145     13.71494     15.03861         0.347397      0.271224     -0.129677
O      11.66578      1.84958      6.60387        -0.241580     -0.129354      0.016492
O      11.73744     13.72107      6.59902        -0.745739     -0.654856      0.268978
O      11.67118      1.95679     10.82589         0.531989     -0.538020      0.028896
O      11.70884     13.80737     10.84336        -0.232165     -0.495925     -0.032653
O      11.67814      5.87981      2.50843        -0.033653      0.207710      0.025115
O      11.66712      5.82893     14.99193         0.486134     -0.075656      0.139077
O      11.67887      5.78075      6.68380        -0.174755      0.475413     -0.030772
O      11.65672      5.84443     10.75693         0.682876     -0.171897      0.159742
O      11.60735      9.53310      2.36479         0.693957      0.429760      0.299742
O      11.61650      9.73977     15.10033         1.129272     -0.080368      0.274883
O      11.54427      9.66174      6.56466         1.087878      0.358368      0.155911
O      11.64226      9.65490     10.86907         0.972582      0.258097     -0.167392
O       1.93833      3.85209      2.41957         0.330567      0.183267      0.638890
O       1.99364      3.89252     15.03506        -0.060452     -0.279874     -0.469172
O       1.71852     15.55830      2.62991         0.483262      0.318312     -0.336446
O       1.79255      0.02634     14.91268         0.249114     -0.091662     -0.220177
O      13.64010      3.89163      2.55367        -0.047697      0.385140      0.145890
O      13.61081      3.79678     14.82363        -0.016236     -0.013701      0.494564
O      13.68161      0.06822      2.58545         0.282129     -0.750612     -0.262088
O      13.76071     15.56289     15.15474        -0.548172      0.172688     -0.537251
O       1.91598      3.88939      6.76591         0.623044      0.025058     -0.694699
O       2.08422      0.03736      6.78902        -0.539090     -0.786023     -0.189048
O      13.65029      3.84407      6.62829         0.276450      0.046090      0.476681
O      13.72657     15.51541      6.72178         0.218817      0.681370     -0.019565
O       1.99351      3.95394     10.61801        -0.015343     -0.898108      0.568136
O       1.85317     15.54430     10.73350        -0.086780      0.640635     -0.236169
O      13.63448      3.80423     10.80148        -0.227404      0.778559     -0.009446
O      13.77534     15.55016     10.73545        -0.339620      0.424098     -0.407663
O       1.90895      7.77117      2.63156        -0.388112      0.125747     -0.370136
O       1.80442      7.82037     15.00021        -0.220454      0.422012      0.075432
O      13.64758      7.84612      2.56176         0.441914     -0.600342     -0.312737
O      13.58809      7.79563     14.80602         0.232985     -0.049137      0.689911
O       2.05591      7.84958      6.56353        -0.420448     -0.230631      0.412169
O      13.72089      7.88220      6.61605        -0.397123     -0.683434      0.014786
O       1.84923      7.74686     10.92201         0.326398      0.333014     -0.338078
O      13.67546      7.81981     10.82449        -0.151054     -0.955522     -0.165780
O       1.90646     11.72333      2.60590         0.715592      0.186131     -0.132169
O       2.07010     11.72999     14.94959        -0.142363     -0.171904      0.116215
O      13.50165     11.66960      2.51488         0.407091     -0.260081     -0.300315
O      13.47126     11.74090     14.96263         0.463339      0.109548     -0.035625
O       2.09004     11.71516      6.70920        -0.378769      0.336558      0.122618
O      13.56495     11.68124      6.69193         0.097120     -0.400116     -0.386440
O       2.04102     11.61520     10.76379        -0.223882      0.838794      0.209765
O      13.57664     11.64751     10.71481        -0.330961     -0.091265      0.465766
O       5.71521      3.87925      2.57510         0.038177      0.258411     -0.250352
O       5.70180      3.82007     15.01220        -0.225541      0.750793      0.222238
O       5.92948     15.59254      2.55201        -0.278466     -0.203724      0.230420
O       5.90793      0.04014     15.10609         0.188659     -0.410815      0.190848
O       5.90776      3.88406      6.71884        -0.618186      0.238675     -0.171044
O       5.80677     15.56506      6.76765         0.285653      0.185486      0.074971
O       5.80300      3.87999     10.93482        -0.527982      0.116401     -0.108530
O       5.73426     15.57553     10.59385         0.295522      0.082944      0.740922
O       5.79179      7.76659      2.48282         0.202465     -0.320333     -0.009935
O       5.82631      7.74872     15.02679         0.053430      0.577518     -0.335989
O       5.83530      7.74904      6.62570         0.002759      0.321696      0.268209
O       5.82730      7.72301     10.90847         0.347591     -0.145024      0.350811
O       5.78467     11.70052      2.54479        -0.564235     -0.108384      0.217587
O       5.73573     11.78209     14.86132         0.032211     -1.222385      0.624583
O       5.90875     11.65476      6.68418         0.145880      0.114374      0.065620
O       5.73109     11.57289     10.81141         0.198709      0.873477      0.129517
O       9.80579      3.91990      2.45214        -0.416123     -0.313384     -0.199248
O       9.82691      3.86928     15.00642        -0.370411     -0.870323      0.185297
O       9.73912     15.55152      2.60144        -0.424034      1.180418     -0.467530
O       9.69688     15.51294     15.02336        -0.081305      0.728081      0.136047
O       9.83093      3.91696      6.53308        -0.480127     -0.424678      0.396617
O       9.63991     15.52291      6.55877         0.153479      1.243784      0.053633
O       9.81419      3.88348     10.74004        -0.485865      0.213826      0.358116
O       9.65727      0.03985     10.79809        -0.377365     -0.621757      0.154845
O       9.64859      7.74173      2.66967        -0.119327     -0.178905     -0.813202
O       9.67226      7.78897     14.98363         0.096875     -0.281258      0.226437
O       9.72174      7.77642      6.67324        -0.055979     -0.435112     -0.328394
O       9.71091      7.72590     10.95572        -0.478679     -0.470282      0.235057
O       9.74737     11.68884      2.43862        -0.117855      0.126061      0.405371
O       9.79317     11.70150     15.02777        -0.334403      0.108866      0.342055
O       9.61934     11.60379      6.64643         0.280978      0.705630      0.392712
O       9.81481     11.68653     10.69406        -0.113579      0.311525      0.467295
