  # total energy = -7879.06052479 
CRSYTAL
PRIMVEC
    15.6080000000000005    0.0000000000000000    0.0000000000000000
     0.0000000000000000   15.6080000000000005    0.0000000000000000
     0.0000000000000000    0.0000000000000000   16.6239999999999988
PRESSURE
-0.599137 -0.687339 -0.054226 0.000296 -0.281392 -0.093231
PRIMCOORD
320 1
Pb       3.75073      3.83827      4.12077         0.338866     -0.599737      0.363541
Pb       3.74269      3.74330     16.60589         0.385798      0.099763     -0.087196
Pb       3.93582     15.42753      4.31751        -0.130354      0.936321     -0.667911
Pb       3.99847     15.59913      0.08201        -0.155614     -0.342317      0.050959
Pb      15.57348      3.87937      4.13980         0.230909     -0.172611      0.799844
Pb      15.57737      3.97045     16.60138         0.025589     -0.045049     -0.102963
Pb       0.10580     15.59782      4.30333        -0.006575      0.241320     -0.804172
Pb      15.60079     15.55020      0.02898         0.413275     -0.173779      0.172313
Pb       4.03916      4.05910      8.32163         0.011154     -0.810965     -0.623750
Pb       3.88208      0.04238      8.49221         0.211973     -0.045497     -0.667452
Pb       0.11861      3.95107      8.24468        -0.091076     -0.673736     -0.495893
Pb       0.01119      0.08172      8.35231        -0.063125     -0.232588     -0.202697
Pb       3.96335      3.90885     12.30618        -0.468340     -0.107467      0.765441
Pb       3.92568      0.11670     12.33283         0.190167      0.099233      0.219480
Pb      15.49158      3.77817     12.31035         0.674666      0.653034      0.505539
Pb      15.42966     15.56930     12.32979         0.966095     -0.390393     -0.005823
Pb       3.93071      7.66410      4.25133         0.314953      0.386992     -0.610542
Pb       3.85044      7.83758      0.04636         0.171408     -0.040141     -0.980017
Pb      15.51279      7.74659      4.12248         0.168559     -0.257001     -0.145995
Pb       0.02299      7.79027      0.02250        -0.303846     -0.405891     -0.197178
Pb       3.95627      7.86822      8.25649        -0.114370     -0.852385      0.404678
Pb       0.20287      7.87547      8.01180        -1.240428     -0.099200      1.362215
Pb       3.75212      7.81403     12.49498         0.461973     -0.034197     -0.051942
Pb       0.04230      7.73863     12.39851        -0.215424      0.119242     -0.204046
Pb       4.00788     11.59896      4.29034        -0.416123      0.198211     -0.063647
Pb       3.91762     11.63349     16.59497        -0.280241      0.669460      0.257174
Pb       0.06753     11.69578      4.25573         0.224452      0.414395     -0.826886
Pb       0.03508     11.62120     16.60652        -0.159680      0.630970      0.181055
Pb       3.88966     11.45799      8.31798         0.030321      1.390748      0.044452
Pb      15.54826     11.72856      8.40056         0.113272     -0.125444     -0.150049
Pb       3.78270     11.74242     12.62179        -0.079761      0.000362     -0.855772
Pb      15.36948     11.71996     12.44274         0.408608     -0.229016     -0.141368
Pb       7.85242      4.07807      4.12992        -0.383345     -0.608097     -0.613853
Pb       7.71591      3.70524      0.11846        -0.200245      0.291343     -0.192947
Pb       7.85462      0.04981      4.15736        -0.603617      0.000609     -0.179013
Pb       7.81128     15.39960     16.55864        -0.298340      0.403208      0.592140
Pb       7.85998      3.98311      8.07070        -0.351688     -0.724729      1.072459
Pb       7.71159     15.57299      8.38980         0.111982      0.260131     -0.145702
Pb       7.77786      4.14030     12.48664         0.055572     -0.268946     -0.000959
Pb       7.80218      0.09572     12.43948        -0.160658     -0.274723     -0.413801
Pb       7.72258      7.76023      4.10599        -0.152412      0.329932     -0.753352
Pb       7.90930      7.67163      0.03331        -0.718879      0.026832     -0.612966
Pb       7.69729      7.78453      8.41090         0.275824     -0.404628      0.081601
Pb       7.69290      7.96705     12.58642         0.176447     -0.814337     -0.043509
Pb       7.74805     11.65679      4.13992        -0.060076      0.116684      0.129837
Pb       7.91105     11.50661      0.04710        -0.699564      0.601772     -0.004699
Pb       7.71360     11.57727      8.45410         0.398055      0.472228     -0.874978
Pb       7.69983     11.75993     12.55576         0.580531     -0.117379     -0.595238
Pb      11.56054      4.01015      3.97184         0.144788     -0.470439      0.377494
Pb      11.63318      3.67301     16.40900         0.176037      0.056281      0.515035
Pb      11.96991      0.18608      4.19163        -0.492980     -0.188061     -0.338582
Pb      11.78045     15.57717      0.04757        -0.497575      0.196737     -0.483169
Pb      11.71242      3.63291      8.06315        -0.461566      0.990704      1.337620
Pb      11.77487     15.38995      8.26548        -0.583192      0.813860      0.236538
Pb      11.54252      3.95365     12.37534        -0.189510     -0.124114     -0.080403
Pb      11.85121      0.03488     12.56838        -0.945349      0.082746     -0.148484
Pb      11.66302      7.99451      4.13282        -0.044272     -0.613236     -0.093501
Pb      11.69358      7.73673     16.55454         0.338596     -0.077572      0.045448
Pb      11.71677      7.75383      8.20384         0.317849      0.129283      0.406057
Pb      11.91370      7.51478     12.39556        -0.489229      0.409342      0.156458
Pb      11.52102     12.07166      4.11038         0.791278     -0.440457      0.602861
Pb      11.70646     11.75986      0.03767         0.177141     -0.211198     -0.254144
Pb      11.55716     11.49285      8.10002         0.007689      0.264983      0.503434
Pb      11.63694     11.53676     12.50915        -0.259772      0.367537     -0.281679
Ti       1.92204      1.99070      2.14952         0.265905     -0.838087      1.717201
Ti       1.87771      1.98779     14.49539         1.034623      0.015410     -0.550094
Ti       1.91285     13.70485      2.22879        -0.604882     -0.061052     -1.140751
Ti       1.87038     13.80775     14.61437         0.170955     -0.423249      1.813856
Ti      13.67330      2.02950      2.20438         0.059298     -0.457443     -0.120598
Ti      13.77149      1.82433     14.61237        -1.554538      0.548645      0.379627
Ti      13.64461     13.67583      2.22773         0.357245      0.452418      0.621131
Ti      13.62283     13.55230     14.69649         0.099517      0.055351      0.655635
Ti       2.10772      1.81866      6.40646         0.072427      1.665312     -0.287501
Ti       1.91139     13.59608      6.46971         0.888437      0.302621     -0.411473
Ti      13.68900      1.87449      6.44051         1.068845     -0.108088     -0.523876
Ti      13.63836     13.55197      6.39166        -0.143681      0.838661      0.047760
Ti       1.90558      1.92579     10.46422         0.593260      0.495845     -0.438345
Ti       1.89332     13.59482     10.48448         0.206534      0.248427     -0.468275
Ti      13.59720      1.95253     10.47295        -0.417798     -0.006656     -0.938228
Ti      13.49245     13.61108     10.39318         1.063909     -0.521902      0.757310
Ti       1.89878      5.89503      2.22552        -0.335254     -0.684253      0.608526
Ti       1.84246      5.89804     14.64033         0.618103     -0.457008      0.885822
Ti      13.58218      5.84678      2.28225         0.145185     -1.017334     -1.158086
Ti      13.58347      5.68140     14.67648         1.169517      0.761555     -0.079769
Ti       1.95527      5.74181      6.38434         0.710777     -1.067168     -0.439887
Ti      13.54219      5.81638      6.35348         0.738428      0.019522      0.003477
Ti       1.90583      5.88370     10.42195         1.209814     -0.439799      0.437688
Ti      13.74204      5.81285     10.38999        -1.438826      0.561462      0.184437
Ti       1.89398      9.72135      2.27232         0.878899      1.081976      0.126762
Ti       1.85899      9.85270     14.68500         0.436621     -1.772251     -0.681487
Ti      13.65334      9.82664      2.18196        -0.211364      0.372687     -0.417403
Ti      13.64329      9.63744     14.71334        -1.049717      0.119442      0.804485
Ti       2.03863      9.73832      6.30177        -0.470669      0.946020      0.156235
Ti      13.72318      9.74990      6.20506        -0.686575     -0.051760      1.132320
Ti       1.97832      9.77931     10.42642        -0.305509      0.036130      0.236852
Ti      13.63201      9.77718     10.45098         0.493875     -0.756010      0.385177
Ti       5.76503      1.95803      2.24762        -0.108739     -0.248269      0.838146
Ti       5.84845      1.87769     14.71611        -0.723416      0.231294     -0.330760
Ti       5.73202     13.67457      2.29034         0.458478      0.548707     -1.007431
Ti       5.73760     13.63053     14.61812         0.130596      0.257807      2.092707
Ti       5.94479      1.84518      6.30843        -2.371128      1.704128     -0.484094
Ti       5.83046     13.66236      6.40819         0.009431     -0.354133      0.186067
Ti       5.90250      2.01094     10.41056         0.144246     -0.420738      0.136615
Ti       5.77228     13.61843     10.46577         0.654049      0.530772     -0.196271
Ti       5.62577      5.79336      2.09832         2.083002     -0.473267     -0.651405
Ti       5.71736      5.72319     14.81748         0.416075      0.843301     -0.504781
Ti       5.91658      5.83258      6.24068        -1.716972     -0.666002      0.922544
Ti       5.78566      5.92531     10.54223         0.487950     -0.039456      0.670216
Ti       5.78763      9.79075      2.14750         0.232713     -0.560188      1.790155
Ti       5.79607      9.73928     14.64166         0.322246     -0.816082      1.622289
Ti       5.91532      9.68106      6.41739         0.634609      0.595959     -1.358509
Ti       5.85426      9.74822     10.57560        -0.236956     -0.140820      1.422269
Ti       9.63724      1.95036      2.23833         0.173217     -0.239364     -0.948348
Ti       9.68303      1.82641     14.63973         0.675112      0.376898      0.206763
Ti       9.61549     13.72128      2.21510         0.481135     -0.032864      0.378387
Ti       9.69016     13.55428     14.68938         0.155207      0.745737     -0.295736
Ti       9.73276      1.95878      6.30511        -0.637356     -0.644300     -0.496482
Ti       9.67296     13.73864      6.46714        -1.148564     -0.454603     -0.314701
Ti       9.70485      1.88266     10.46851        -0.377025      0.492943      0.830160
Ti       9.71476     13.57897     10.48641        -0.559006     -0.216571      0.955113
Ti       9.66920      5.86651      2.12419        -0.475713     -0.000149     -0.537745
Ti       9.69479      5.80536     14.74049        -0.786384     -0.011304     -0.226499
Ti       9.71497      5.97549      6.35851        -0.281440     -1.084251     -0.660291
Ti       9.65677      5.86043     10.42143         0.345035     -0.365568      0.805770
Ti       9.78126      9.76936      2.15611        -1.208572     -0.102783     -0.141476
Ti       9.72997      9.75928     14.61779        -0.006238     -0.895180      1.290040
Ti       9.70092      9.67297      6.30927        -0.387465      1.428095      0.173251
Ti       9.86606      9.61823     10.52587        -0.977895      0.878541      0.500357
O       1.86825      1.91387      0.40655        -0.083282      0.073513     -1.035944
O       1.87841      1.89667     12.67464        -0.080738      0.402169      0.614576
O       1.77640     13.91340      0.39178         0.056799     -0.288588      0.620644
O       1.98891     13.55828     12.90572         0.012185     -0.185346     -1.577416
O      13.74583      2.13537      0.41197        -0.178165     -0.510407      0.129206
O      13.80546      1.70524     12.78233        -0.490628      0.305381     -0.475054
O      13.60920     13.75509      0.47574         0.423073     -0.230596     -1.068740
O      13.58614     13.65498     12.91913         0.110220     -0.091486     -0.770264
O       1.93013      2.08540      4.62955         0.230463     -0.624119     -0.097917
O       1.91784     13.65516      4.62172         0.054839     -0.311079      0.688878
O      13.72866      1.76027      4.64565        -0.446983      0.265933      0.055074
O      13.56939     13.77687      4.62946        -0.156877     -0.152119     -0.584203
O       2.12823      1.88842      8.62722        -0.739867     -0.068058      0.942382
O       1.91952     13.65054      8.66449        -0.426528     -0.169770      0.559644
O      13.50607      1.87074      8.65390         0.103835      0.504518      0.954134
O      13.70308     13.51090      8.64983        -0.470296      0.091919     -0.853899
O       1.78172      5.90889      0.49015         0.420166      0.140145     -1.004249
O       1.89402      5.79055     12.91080        -0.634243      0.765909     -1.707692
O      13.61310      5.66530      0.48188         0.286023      0.195914      0.750647
O      13.82867      5.80407     12.89123        -0.567081      0.290020      0.001840
O       1.85134      5.59700      4.61697         0.585682      1.342747     -0.102110
O      13.53435      5.78294      4.57606         0.064674      0.211508      0.519553
O       2.20758      5.90012      8.66933        -0.924331     -0.215005     -0.047501
O      13.43784      5.82549      8.65923         0.625053      0.108694     -0.587757
O       1.96958      9.64404      0.48942        -0.250388      0.131472     -0.222681
O       1.78717      9.69567     12.86967         0.385319      0.438447      0.400379
O      13.68114      9.70153      0.37115        -0.220385      0.108821      1.531709
O      13.51789      9.97613     12.94709         0.543280     -0.988032     -0.190681
O       1.99377      9.87760      4.52079        -0.288136     -0.237097      0.343314
O      13.57950      9.90040      4.48340         0.121132     -0.858289     -0.721483
O       1.99133      9.78631      8.61215        -0.171986      0.153256      0.463782
O      13.58185      9.78757      8.71035         0.122014     -0.148257     -1.021616
O       5.79820      2.09484      0.46783        -0.270324     -0.892060     -1.167390
O       5.88271      1.74773     12.91133        -0.010638      0.437087      0.686294
O       5.68175     13.73567      0.46099         0.174350     -0.533471      1.240537
O       5.76256     13.64631     12.87074        -0.241399      0.018276     -0.446908
O       5.75309      1.92943      4.50151         0.517593      0.146891      0.750477
O       5.67269     13.79735      4.58228         0.181165     -0.485627      0.407451
O       5.78524      1.88335      8.64950         0.402969      0.218201      0.072897
O       5.95301     13.57854      8.62257        -0.102202      0.115434      1.510643
O       5.73390      5.80311      0.26451        -0.460064      0.512653      1.406988
O       5.99673      5.73000     13.00349        -0.344166      0.078283     -0.220107
O       5.79460      5.80426      4.48543         0.241344      0.329340     -0.917612
O       5.73489      6.05754      8.78274        -0.063520     -0.340076     -0.204585
O       5.63319      9.85508      0.40810         0.224207      0.029833     -0.447746
O       5.73849      9.76024     12.89436         0.069332      0.178116     -1.016859
O       6.04516      9.72808      4.60347        -0.602722     -0.415239      0.943029
O       5.85101      9.68202      8.78744         0.186759     -0.033682     -0.591446
O       9.77770      1.89369      0.43627        -0.198043      0.286948      0.210388
O       9.78948      1.83565     12.85666        -0.339551     -0.292286      0.206115
O       9.63350     13.47316      0.47950         0.213330      0.158016     -0.705199
O       9.72224     13.57950     12.91863         0.238311      0.136000     -0.046130
O       9.57680      1.91707      4.48488         0.367889      0.117687      0.599311
O       9.63302     13.74676      4.70014         0.697606     -0.198039     -1.183934
O       9.67206      2.01791      8.72899         0.295727     -0.083999     -0.699801
O       9.65785     13.61850      8.71697        -0.184815     -0.081362     -0.074769
O       9.76910      5.96357      0.32213        -0.068178     -0.332262      0.382162
O       9.67172      5.83879     12.95232         0.083751     -0.392096     -0.251321
O       9.57189      5.83626      4.51834         0.266815      0.361431      0.594224
O       9.76346      5.86392      8.66451        -0.264130      0.188753     -0.382713
O       9.55348      9.76119      0.31924         0.810852      0.108236      1.508355
O       9.75901      9.92842     12.87335         0.212409     -0.704511     -0.434289
O       9.53460      9.61970      4.52047         0.437017     -0.142028      0.474995
O       9.85360      9.76657      8.73883        -0.311523     -0.535961     -0.111736
O       3.88525      1.86139      2.52603        -1.534863      0.120426     -0.204343
O       3.84339      1.85417     14.81048        -0.459680     -0.135386      0.530764
O       3.80825     13.79346      2.50947         0.077257     -0.181251      0.181044
O       3.75516     13.76487     15.15576         0.554839     -0.110381     -1.094755
O      15.55569      2.06670      2.63068         0.415398      0.169576     -0.703030
O      15.58091      2.14574     14.80889         0.522759     -0.203060      0.386649
O      15.58376     13.66683      2.61785        -0.717165     -0.207192      0.134495
O      15.54025     13.53332     14.92030         0.085667     -0.029917      0.259495
O       3.97723      2.04774      6.67428        -0.702400     -0.452093     -0.119195
O       3.94614     13.63465      6.88622        -0.434983     -0.133122     -0.825790
O       0.02847      1.84647      6.71261        -0.531882     -0.039245      0.405019
O      15.50129     13.76811      6.65688         1.201176     -0.739454      0.036316
O       3.98942      1.93888     10.79308        -1.465962     -0.556731      0.058215
O       3.86832     13.74909     10.80429         0.404476     -0.037500     -0.275652
O      15.55926      1.99402     10.62618        -0.181548     -0.045044      0.020553
O       0.02593     13.38009     10.75762        -0.746909      0.523110      0.075428
O       3.83582      6.03388      2.51286        -0.559243      0.293611      0.195020
O       3.83039      5.93514     14.81584         0.143913      0.403172      0.658251
O       0.05887      5.77277      2.69131        -1.609501     -0.005040     -0.397418
O      15.55162      5.80544     15.06397        -0.100884     -0.283270     -0.053752
O       3.88977      5.68446      6.59501        -0.144942      0.957432     -0.257179
O      15.59732      5.82646      6.77957        -0.237741      0.249379     -0.307786
O       3.91652      5.83700     10.99364        -1.079121      0.384659     -0.403351
O       0.04603      5.84755     10.67331         0.018604      0.030627     -0.100313
O       3.85153      9.85559      2.63897        -0.280843     -0.864607     -0.248465
O       3.85466      9.61456     14.95471        -0.763255      0.475785     -0.018083
O      15.52125      9.83856      2.62738         0.052407     -0.130168     -0.250645
O      15.50049      9.72857     15.07688         1.067576      0.363686     -0.431261
O       3.96123      9.70475      6.67951        -0.166295      0.365172     -0.403416
O       0.04315      9.84704      6.56835        -0.324624     -0.477772     -0.135380
O       3.86435      9.64644     10.77524        -0.141517      0.517613      0.131020
O      15.54837      9.81787     10.70639         0.556328      0.188043      0.285289
O       7.66747      1.96394      2.47688         1.364960      0.449633      0.187050
O       7.74584      1.91683     15.04499         0.375918     -0.079101     -0.356075
O       7.73215     13.49147      2.50732         0.122332      0.393948      0.164709
O       7.78258     13.59976     14.99556        -0.597080     -0.113078     -0.322052
O       7.71102      1.91631      6.66062         2.153704      0.635166      0.146089
O       7.72324     13.59815      6.56177         0.218994      0.527459      0.729846
O       7.77535      1.94100     10.78791         0.149975      0.233129      0.130961
O       7.80471     13.55040     10.91175        -0.223495     -0.040759     -0.432935
O       7.69382      5.67280      2.32185         0.087975      0.754964      0.370575
O       7.79822      5.66536     15.11674         0.497888      0.111457     -0.187819
O       7.75659      5.89884      6.67960         0.719047      0.186489     -0.110796
O       7.69010      5.90223     10.74154         0.809531     -0.350021      0.220288
O       7.68470      9.98347      2.40896         0.614702     -0.341655     -0.249475
O       7.72020      9.91901     14.97222         0.165478     -0.423148     -0.580730
O       7.79809      9.48402      6.87712        -0.459060      1.144466     -0.594177
O       7.79706      9.73881     11.01050        -0.695947      0.206996     -0.906086
O      11.65100      2.04995      2.47591         0.354440     -0.446681      0.454160
O      11.78462      1.70209     14.86929        -0.439963      0.499835      0.242339
O      11.65802     13.71283      2.38529        -0.206901      0.042550      0.864050
O      11.67654     13.64285     15.02875         0.020485     -0.043967      0.288213
O      11.61615      1.84528      6.55965         0.380876      0.337382     -0.054952
O      11.56071     13.56307      6.72936         1.101093      0.290292     -0.087336
O      11.68374      1.95259     10.85041         0.579612     -0.071733     -0.091878
O      11.71122     13.70478     10.73982        -1.035811      0.194103     -0.012070
O      11.58674      5.82749      2.45848         0.321629      0.273300      0.352218
O      11.72734      5.77133     15.01228        -1.007318      0.563775     -0.321215
O      11.58155      5.93527      6.65743         0.941398     -0.327533     -0.557551
O      11.75346      5.80939     10.84912        -0.893533      0.295008      0.065848
O      11.64889      9.58382      2.49458         0.213161      0.193894     -0.504464
O      11.65605      9.59816     15.13387        -0.126879      0.696546     -0.731383
O      11.69945      9.64737      6.54658        -0.522177     -0.008942     -0.107808
O      11.72354      9.62834     10.80560        -0.299708     -0.296786      0.370373
O       2.13135      3.98205      2.39237        -0.576295     -0.977399      0.105058
O       2.02625      3.94912     14.93483        -0.585721     -0.876163      0.079485
O       1.79528      0.10236      2.52886        -0.048593     -0.440149      0.271724
O       1.63886      0.04265     14.67763         0.152648      0.448727      0.578318
O      13.59071      3.90203      2.75226        -0.003350      0.015905     -0.617127
O      13.52233      3.82424     14.85784         0.309941     -0.581456     -0.009986
O      13.70561      0.02695      2.50041        -0.459115      0.588909      0.011669
O      13.69223     15.57527     14.99793         0.439357     -0.266485     -0.077725
O       1.90799      3.84180      6.58451        -0.328313      0.747943      1.346301
O       2.05431     15.53394      6.62563        -0.178621      0.086841      0.205827
O      13.64996      3.81773      6.72640        -0.108949      0.756621     -0.451525
O      13.54994     15.59972      6.77854        -0.039303     -0.773613     -0.111843
O       1.89830      3.89298     10.70428         0.276566      0.159779     -0.067655
O       1.74954      0.01474     10.69247         0.557118     -0.476285      0.132776
O      13.67642      3.97393     10.83454        -0.149607     -1.838303     -0.313537
O      13.74865     15.54329     10.56336        -0.184218      0.340055      0.711741
O       1.70596      7.82377      2.58834         0.786985      0.394537      0.251174
O       1.75943      7.82914     15.04398         0.414361     -0.129782     -0.311989
O      13.72560      7.67883      2.56832        -0.362620      1.434679      0.119211
O      13.65501      7.70422     15.08478        -0.184988      0.556487     -0.631623
O       2.04954      7.87143      6.68811        -0.209846     -0.850157     -0.921882
O      13.66456      7.77533      6.52546         0.099841      0.196072      0.107514
O       1.92298      7.84883     10.61817        -0.272187     -0.773637      0.859830
O      13.70160      7.70765     10.85778         0.067557      0.839838     -0.004421
O       1.85270     11.77361      2.28372         0.023072     -0.406583      0.753575
O       1.95915     11.67096     15.01839        -0.173392      0.114621     -0.067120
O      13.47507     11.72401      2.34707         0.266450     -0.564361      0.353788
O      13.59257     11.64503     15.07875        -0.222405      0.512066      0.012971
O       2.04442     11.67482      6.70729        -0.408992      0.259073     -0.156463
O      13.62751     11.67733      6.45531         0.094723     -0.152373      0.771341
O       2.11719     11.70823     10.73867        -0.193096     -0.518126      0.123685
O      13.51281     11.67024     10.70520         0.204586      0.246534      0.570448
O       5.58497      3.91788      2.33082         0.183253      0.885574      0.656439
O       5.68085      3.85272     15.16672         0.393584     -0.588504     -1.049752
O       5.86175      0.04966      2.54788        -0.123216     -1.571954     -0.111942
O       5.86493     15.53861     15.16112        -0.234042      0.532505     -0.777851
O       5.88357      4.00360      6.73177         0.332450     -0.602226     -0.112613
O       5.88517      0.05905      6.65634        -0.342114     -1.904033      0.139954
O       5.74331      3.88830     10.77581         0.592372      0.642914     -0.123466
O       5.92300     15.59864     10.72421        -0.226323     -0.764801      0.062913
O       5.83268      7.81417      2.47836        -0.086772      0.429157      0.010928
O       5.96629      7.84781     15.04960        -0.363554     -0.085445     -0.281248
O       5.72403      7.69840      6.61004         0.219620      0.973358      0.060424
O       5.73826      7.84343     10.98596         0.468573     -0.291697     -0.134544
O       5.66844     11.73559      2.77736         0.493120      0.225149     -1.146012
O       5.67505     11.76083     14.98170        -0.182202     -0.182440     -0.369621
O       5.95928     11.60936      6.58052        -0.389946     -0.036922      0.430213
O       5.77977     11.69609     10.81390        -0.081748     -0.067610      0.007592
O       9.57819      3.90083      2.40578         0.678057      0.365871      0.423596
O       9.83218      3.73186     14.85066        -0.056375      0.680564      0.343018
O       9.62259      0.00382      2.44344        -0.107740     -0.459002      0.124952
O       9.72772     15.55484     15.14351        -0.076989     -0.568990     -0.567879
O       9.69178      3.89095      6.58721        -0.002707      0.226380     -0.114271
O       9.62955      0.08755      6.76706         0.163853     -1.088179     -0.155833
O       9.65841      3.96931     10.83978         0.357661     -0.191943      0.108465
O       9.58059      0.02067     10.79833         0.691608     -0.948143     -0.303895
O       9.52939      7.81806      2.41785         0.202086      0.068913      0.167588
O       9.59965      7.79437     14.85158         0.125689     -0.121090      0.468927
O       9.58919      7.80021      6.70580         1.016117     -0.404244     -0.168081
O       9.59545      7.74151     10.88302         0.738574      0.342703     -0.276488
O       9.87220     11.64820      2.67031        -0.872076      0.097958     -0.996005
O       9.71258     11.63392     14.94610         0.606323      0.867101      0.455717
O       9.57905     11.63253      6.63791         0.445850     -0.694485      0.137107
O       9.79853     11.60093     10.81643         0.098204      1.013800     -0.285492
