  # total energy = -7878.18631307 
CRSYTAL
PRIMVEC
    15.6080000000000005    0.0000000000000000    0.0000000000000000
     0.0000000000000000   15.6080000000000005    0.0000000000000000
     0.0000000000000000    0.0000000000000000   16.6239999999999988
PRESSURE
-0.175102 -0.745523 -0.297255 -0.075691 -0.306988 0.054882
PRIMCOORD
320 1
Pb       4.01514      4.00186      4.16138        -0.188789     -0.741151     -0.247418
Pb       4.08851      4.10483      0.14941        -0.420480     -0.880689     -0.113396
Pb       3.86679      0.03528      4.01292         0.567174     -0.138269      0.090559
Pb       3.76770     15.57354     16.61952        -0.042932      0.145633     -0.232623
Pb       0.09853      3.83514      4.17264        -0.254162      0.039982     -0.454590
Pb      15.45925      3.81043     16.62135         0.571375      0.483583     -0.141476
Pb      15.54372     15.55854      4.00457         0.170326      0.280841     -0.133118
Pb      15.46903     15.55801     16.56785         1.302652      0.251440      0.397483
Pb       3.64563      3.77996      8.35238         0.581713     -0.232579     -0.188860
Pb       3.89215      0.08127      8.31029        -0.239204     -0.196343     -0.275694
Pb      15.54945      3.78120      8.28199         0.082832      0.173008     -0.080691
Pb       0.15166     15.58022      8.20179        -0.289332     -0.148779      0.279741
Pb       3.91970      3.94693     12.37062        -0.285554     -0.060075      0.297336
Pb       3.83606     15.39472     12.27397         0.289847      0.622469      0.407317
Pb      15.58685      3.75740     12.42645         0.137696      0.811189      0.471636
Pb      15.54827      0.31958     12.60030         0.312707     -0.471062     -0.204722
Pb       3.80070      7.85850      4.34485         0.170796     -0.155507     -1.054889
Pb       3.81015      7.73969      0.01101        -0.078476      0.011965     -0.160775
Pb       0.25987      7.91451      4.25319        -0.623919     -0.692441     -0.409403
Pb       0.03603      7.73241      0.02451        -0.001501     -0.072711     -0.529720
Pb       4.09211      7.67899      8.08313        -0.845656     -0.087915      0.877612
Pb      15.40161      7.75018      8.58097         0.078685      0.225589     -0.430617
Pb       3.92313      7.90064     12.44025        -0.187896     -0.589308     -0.220298
Pb      15.60043      7.98758     12.61132        -0.232839     -1.062170     -0.344073
Pb       3.82603     11.66929      4.08223         0.660179      0.041349     -0.134450
Pb       3.93121     11.60184     16.44033        -0.638325      0.304230      0.288098
Pb      15.59269     11.66108      4.06511        -0.439298      0.185639     -0.048202
Pb      15.53497     11.84200     16.55826         0.304889     -0.445098      0.095314
Pb       3.83216     11.62164      8.04519         0.001014      0.587375      0.700750
Pb      15.56711     11.61115      8.34146         0.139872      0.313940     -0.517165
Pb       4.06618     11.69117     12.28826        -0.422066     -0.268440      0.386954
Pb       0.21600     11.51223     12.28828        -0.432180      0.428896      0.587693
Pb       7.86869      3.73072      4.20619        -0.117129      0.021271     -0.505927
Pb       7.85451      4.01152      0.13123         0.270741     -0.328466     -0.804761
Pb       7.78439     15.41881      3.98640        -0.341223      0.595611     -0.273469
Pb       7.92034      0.18358      0.12475        -0.554562     -0.107501     -0.515912
Pb       7.56068      3.98886      8.35078         0.324309     -0.214974     -0.455067
Pb       7.87572     15.50499      8.35373         0.118770      0.169364     -0.259040
Pb       7.63817      3.78332     12.40207         0.704756     -0.206968      0.454533
Pb       7.64269     15.56417     12.57294         0.410178      0.126333     -0.410135
Pb       7.68714      7.86741      4.16028         0.312416     -0.174660      0.121895
Pb       7.85335      8.04488     16.59239        -0.063219     -1.119178     -0.230270
Pb       7.81408      7.76709      8.26638        -0.324203     -0.380681     -0.477959
Pb       7.84737      7.55013     12.33155         0.269052      0.316448      0.026944
Pb       8.01882     11.68515      4.35068        -0.945408     -0.165178     -0.860319
Pb       7.64371     11.67395      0.03295         0.478936      0.288660     -0.281703
Pb       7.59285     11.74255      8.07497         0.522480     -0.083690      0.413002
Pb       7.66509     11.45932     12.40422         0.443692      0.711941     -0.000652
Pb      11.78259      3.94188      4.38625         0.259000     -0.518377     -0.975980
Pb      11.84400      4.09786      0.13132        -0.971610     -0.193947     -0.212006
Pb      11.49166     15.46898      4.17710         0.440721      0.812158     -0.391313
Pb      11.55278     15.51416      0.11268        -0.069662      0.220631     -0.601265
Pb      11.77920      4.11288      8.40956        -0.259710     -0.509564     -0.864326
Pb      11.62193      0.12886      8.24731         0.318983     -0.085159     -0.102326
Pb      11.86684      3.81461     12.63432        -0.375972      0.176892      0.009440
Pb      11.91371     15.52401     12.41601        -1.040294      0.394367     -0.059964
Pb      11.72705      7.41890      4.00502         0.129005      1.352632      0.579408
Pb      11.35406      7.77530      0.02852         0.837556     -0.051607     -0.249198
Pb      11.51392      7.97469      8.21772         0.780498     -0.749311      0.088246
Pb      11.51030      7.88503     12.69128         0.248566     -0.037642     -0.700624
Pb      11.59527     11.26233      4.29065         0.466090      1.009004     -0.892281
Pb      11.81801     11.80660     16.50459        -0.430709     -0.699344      0.498550
Pb      12.08187     11.98056      8.42603        -0.867666     -0.356867     -0.286349
Pb      11.62278     11.89519     12.40620        -0.120702     -0.369471      0.199064
Ti       1.92448      1.83962      2.18061        -0.278346      1.137205     -0.690519
Ti       2.01481      1.99863     14.69624        -0.216045     -0.100278      0.372219
Ti       1.92661     13.56050      2.19366        -0.075743      0.484757     -0.746131
Ti       1.97436     13.68126     14.41216        -0.169809     -0.259333      3.227165
Ti      13.57324      1.92511      2.21193        -0.147951      0.794923      1.436703
Ti      13.61744      1.91608     14.84346        -0.637319      1.072688     -0.633892
Ti      13.55357     13.61956      2.32773         0.151151     -0.679536     -0.374447
Ti      13.70348     13.68421     14.59221        -0.396377     -1.108283      1.014205
Ti       1.93270      1.92038      6.34521         0.557388     -0.246588     -0.391519
Ti       1.92879     13.57986      6.17699        -0.132910      1.274745      0.766168
Ti      13.68041      1.88696      6.28476        -0.898450     -0.121085     -0.050405
Ti      13.74303     13.64298      6.20066        -0.354614      0.520275      1.555750
Ti       1.93588      1.91798     10.60886        -0.362983     -0.042454     -1.564607
Ti       1.91992     13.60499     10.41614         0.612974      0.174189     -1.279114
Ti      13.59520      1.97766     10.46737         0.203062     -0.168984      0.292501
Ti      13.80537     13.69573     10.48097        -0.833484      0.064253     -0.126294
Ti       2.00981      5.76226      2.26519        -0.131445      0.335058     -0.780712
Ti       1.91217      5.77079     14.67940        -0.717591      0.183934     -0.752928
Ti      13.81349      5.86737      2.13346        -1.530277     -0.809289      0.151039
Ti      13.56657      5.92381     14.67512         0.546498     -0.664365      0.240392
Ti       1.81788      5.84467      6.39087         0.181591     -0.057027     -0.714610
Ti      13.62431      5.92685      6.30824         0.229550     -1.270005      0.092530
Ti       1.87170      5.81615     10.50960         0.943024      0.163274      0.803773
Ti      13.71085      5.85044     10.55740        -0.446181      0.400423      1.200232
Ti       1.91584      9.74867      2.19291         0.598308     -0.683626     -0.577949
Ti       1.96543      9.70992     14.63179        -0.353609      0.218166     -0.151053
Ti      13.68294      9.69540      2.28924        -0.987791      0.112221     -1.727149
Ti      13.64713      9.71502     14.67682        -0.379176     -0.084837     -0.527795
Ti       1.81109      9.68763      6.46005         0.290372     -0.383487      0.360278
Ti      13.62018      9.69089      6.22857         0.155976      0.150369      1.155177
Ti       1.99633      9.66825     10.38958        -0.042725     -0.315752     -0.493901
Ti      13.49191      9.73575     10.68698         0.427860     -0.475880     -0.203465
Ti       5.82337      1.97108      2.14274         0.251740     -0.565881      1.005607
Ti       5.82209      1.96254     14.69208         0.768538     -0.136259     -0.560851
Ti       5.84566     13.52433      2.17676         0.107204      0.373738      0.520586
Ti       5.88486     13.70267     14.79979         0.103753      0.201614     -1.067671
Ti       5.89643      1.86791      6.33089        -1.541445      0.420738      0.137705
Ti       5.70279     13.65444      6.28060         0.598038      0.357964     -1.117656
Ti       5.79128      1.89913     10.52832         0.800065      0.177626     -0.405784
Ti       5.85227     13.57773     10.49262         0.643939      0.339260      0.400519
Ti       5.96129      5.88183      2.21841        -1.096481     -0.055034      1.350183
Ti       5.82776      5.78688     14.65367         0.859594     -0.303197      0.435545
Ti       5.75388      5.75402      6.21496         0.522165     -0.464952      0.720122
Ti       5.85030      5.83271     10.51201        -0.860643     -0.028278     -0.885619
Ti       5.82635      9.71082      2.28664        -0.370413      0.534393      1.230301
Ti       5.88430      9.60842     14.63954        -0.703272      0.773694     -0.546785
Ti       5.77260      9.65187      6.26071         1.404022      0.744724      0.039486
Ti       5.88651      9.61277     10.33050        -0.447939      0.165508      1.068709
Ti       9.74948      2.01088      2.17516         0.208143     -0.057894      0.424514
Ti       9.74680      1.97457     14.63855        -0.692192      0.779116      0.366536
Ti       9.81120     13.52476      2.17640        -1.068835     -0.225960      0.141791
Ti       9.68956     13.63402     14.64506        -0.445486      0.280882      0.241951
Ti       9.71384      1.97912      6.32175         0.453841     -0.364718      0.925205
Ti       9.81491     13.61671      6.39316         0.335282      0.508105      2.387660
Ti       9.75103      1.93438     10.54855        -0.808157     -0.696917      0.626790
Ti       9.74904     13.67038     10.43501        -0.515093      0.478996      0.117204
Ti       9.75072      5.85210      2.30746        -0.272099     -1.140934     -1.547239
Ti       9.64650      5.79819     14.60712        -0.036187     -0.648000     -0.065543
Ti       9.66899      5.80187      6.37574         0.042125     -0.514529     -0.241250
Ti       9.88649      5.64507     10.48426        -0.548347      0.920799      1.422751
Ti       9.70626      9.67091      2.19319         0.727410      0.348145     -0.145847
Ti       9.76882      9.87796     14.63165        -0.098416     -0.599933      0.351584
Ti       9.77660      9.80283      6.32743        -1.411245     -0.631267      0.531588
Ti       9.75464      9.75097     10.32817        -0.144365      0.293089      1.493273
O       1.84086      1.77628      0.38602         0.391982      0.257551      0.192647
O       1.81368      1.93048     12.86877         0.174280     -0.147288     -0.147448
O       1.92665     13.56563      0.40639        -0.073055      0.129330      0.256603
O       1.97786     13.54136     12.70921        -0.180616      0.419132     -1.057403
O      13.62471      2.10139      0.45913        -0.089195     -0.794984     -1.694388
O      13.66862      1.95961     12.98181         0.236269     -0.384777      0.186207
O      13.41921     13.48512      0.54642         0.454732      0.628898     -1.260218
O      13.61079     13.66405     12.87180         0.301213      0.506136     -0.944566
O       1.84179      2.09169      4.54132         0.130373     -0.668245      0.457940
O       1.97872     13.68448      4.39351        -0.316357     -0.337670      0.168337
O      13.60434      1.76022      4.50185         0.419587      0.557119      0.640012
O      13.67243     13.59616      4.43982         0.040578      0.229134      0.233410
O       1.88073      2.02860      8.65822         0.084174     -0.205913      1.066580
O       1.95678     13.72064      8.59833        -0.157422     -0.737206      0.817246
O      13.55125      1.91998      8.71985         0.143855      0.325187     -0.461533
O      13.74986     13.68818      8.63921        -0.294843     -0.608991      1.066437
O       1.97600      6.00640      0.43283        -0.111353     -0.365917      0.665048
O       2.02401      5.81086     12.87957        -0.075098      0.016931      0.287882
O      13.67168      5.80660      0.29532        -0.161188      0.325124      0.798885
O      13.53165      5.70598     12.91814        -0.032310      0.141793     -0.609555
O       1.75899      5.80222      4.51819         0.170986      0.155098      0.416831
O      13.57918      5.75244      4.52046        -0.076448      0.394827      0.098224
O       1.96425      5.58071      8.76554        -0.330894      0.620181     -0.931201
O      13.67541      6.00162      8.78066        -0.196985     -0.632376     -0.955172
O       1.84493      9.70992      0.41686         0.290681     -0.151681     -0.524434
O       1.79588      9.51848     12.79340         0.697866      0.556566      0.480584
O      13.53949      9.61034      0.47652         0.463981      0.411718      0.139671
O      13.50940      9.66428     12.79008         0.688431      0.252414      1.296622
O       1.86524      9.66269      4.65236         0.027848      0.313438     -0.422602
O      13.65592      9.86660      4.49125         0.226398     -0.490361     -0.064685
O       1.98422      9.77973      8.54695        -0.192325      0.141412      1.017908
O      13.59995      9.73099      8.88072        -0.288699     -0.046965     -0.360448
O       5.86697      2.04321      0.40517        -0.215347     -0.107146     -0.829134
O       5.91659      1.95166     12.85846        -0.767724     -0.157806      0.178107
O       5.92523     13.52348      0.36618        -0.562202     -0.090129      0.189645
O       5.89287     13.54133     12.93534        -0.538889      0.111128      0.008635
O       5.72111      1.95767      4.55678         0.299813     -0.126683      0.041165
O       5.71726     13.68484      4.46582         0.359002      0.156282      0.795209
O       5.68712      1.96246      8.72165         0.522527     -0.308234      0.287605
O       5.72550     13.53646      8.77407         0.134414      0.168350     -1.166641
O       5.98586      5.76634      0.45298        -0.612299      0.304405     -0.624621
O       5.91177      5.81923     12.88165        -0.510226      0.096964     -0.211446
O       5.72079      5.83847      4.44032         0.167540     -0.434396      0.729217
O       5.92063      6.06444      8.66145        -0.313142     -0.866744      0.745443
O       5.87605      9.66437      0.54629        -0.012552      0.134613     -1.716644
O       5.96028      9.69504     12.83710        -0.538724     -0.126190      0.286509
O       5.73090      9.80964      4.50922         0.192565     -0.559643     -0.212202
O       5.84899      9.55508      8.57314        -0.167574      0.173567     -0.394718
O       9.62074      2.08539      0.37680         0.497169     -0.753379      0.268364
O       9.66805      2.07079     12.85616         0.341055     -0.590615      0.866398
O       9.71178     13.67641      0.44491         0.459582     -0.287761     -0.879021
O       9.58693     13.65364     12.89018         0.421845     -0.284237     -0.401565
O       9.65524      1.82712      4.56088         0.047542      0.226778     -0.415558
O       9.75425     13.58171      4.67501        -0.403978      0.401055     -2.159132
O       9.81423      1.86421      8.78035        -0.188370      0.128178     -0.343654
O       9.77288     13.69609      8.62063        -0.171379     -0.100297      0.560848
O       9.74426      5.82147      0.45226        -0.593602      0.200299      0.883212
O       9.59684      5.66018     12.77782         0.420161      0.802135      0.447691
O       9.83245      5.66238      4.58940        -0.262818      0.391566     -0.382122
O       9.71223      5.65520      8.71235         0.104053      0.428183     -0.444256
O       9.71444      9.62015      0.36790        -0.241021     -0.242113      0.199055
O       9.82381      9.89645     12.84783        -0.615854     -0.346985      0.063427
O       9.67073      9.73288      4.54374         0.158794      0.234576     -0.102978
O       9.86732      9.76573      8.56780        -0.215246     -0.231820     -0.108359
O       3.88167      1.91070      2.47159        -0.493250      0.206111     -0.068688
O       3.87046      1.97213     14.99235        -0.195670     -0.142943      0.033963
O       3.87663     13.57172      2.42461        -0.012104     -0.026234     -0.075439
O       3.81341     13.79907     14.97480         0.207407     -0.421966     -0.314455
O      15.56894      1.80631      2.44291        -0.406728      0.097016      0.332697
O      15.54731      1.93410     15.05531        -0.383469     -0.069006     -0.111295
O      15.56055     13.65256      2.39016        -0.041505      0.268681      0.420064
O       0.01961     13.55176     14.95214        -0.387155      0.670301     -0.259733
O       3.80648      1.89614      6.69057        -0.560862      0.200016     -0.151124
O       3.83915     13.59449      6.55682        -0.414030     -0.225856      0.139945
O      15.57805      1.92962      6.76775        -0.275899      0.139082     -0.665571
O      15.60531     13.61301      6.57788        -0.273132      0.034816     -0.294995
O       3.78850      1.93888     10.73247         0.930518     -0.277801      0.564533
O       3.83462     13.54890     10.75246         1.120293      0.025240      0.492761
O       0.00718      1.85067     10.83299        -0.687981     -0.126541      0.140236
O       0.02381     13.43678     10.61772        -0.571631      0.025917      0.542965
O       3.91781      5.83462      2.42952        -0.616785     -0.453313      0.102030
O       3.90391      5.65350     15.08319         0.045788      0.913008     -0.387278
O      15.56307      5.67648      2.34603         1.000136      0.712841      0.295870
O      15.51504      5.87190     14.90379         0.398876     -0.039616      0.262890
O       3.81070      5.91568      6.45276         0.548283     -0.011518      0.387288
O      15.53652      5.97408      6.68082         0.025989      0.066369      0.141786
O       3.89145      5.69335     10.84330        -0.223154      0.484465     -0.168067
O       0.02824      5.84394     10.80881        -0.307169     -0.083147      0.145701
O       3.87708      9.81540      2.50079        -0.825142      0.025615      0.036595
O       3.89695      9.66164     14.92057        -1.000495     -0.116690      0.088495
O      15.58902      9.73184      2.58176         0.155170     -0.635148      0.015455
O      15.60541      9.72785     14.91703        -0.801205     -0.043844     -0.091391
O       3.92771      9.71646      6.57336        -1.050308     -0.220351      0.099463
O      15.54076      9.59049      6.76626        -0.388568      0.317258     -0.437621
O       3.84420      9.64560     10.78064         0.690148      0.190375     -0.080426
O      15.55322      9.67520     10.78136         0.257246      0.321946     -0.013851
O       7.77766      1.93373      2.48849        -0.028778     -0.163339      0.352022
O       7.73475      1.98699     14.97042         1.574364     -0.088639      0.163336
O       7.82107     13.52353      2.54152        -0.234275      0.272818      0.154226
O       7.72536     13.62029     14.98190         0.184230     -0.658684      0.279928
O       7.71530      1.98338      6.56144         0.265260     -0.474410      0.484629
O       7.63629     13.67044      6.73251         0.761384      0.125071     -0.340626
O       7.73411      1.84311     10.89328        -0.246165      0.266927     -0.687104
O       7.74802     13.62272     10.74033        -0.179454     -0.068987     -0.257512
O       7.74141      5.89931      2.66817         0.492392     -0.105686     -0.251119
O       7.76916      5.78363     15.03361        -0.290995      0.268140     -0.256380
O       7.72695      5.80300      6.59516         0.086683     -0.389555      0.069858
O       7.66854      5.77165     10.77493         1.165575      0.266758     -0.130647
O       7.85930      9.67780      2.54935        -1.522877     -0.435743      0.092234
O       7.71876      9.82136     14.90202         0.394325     -0.329616      0.511213
O       7.73763      9.80278      6.44344         0.498597     -0.260498      0.736338
O       7.75823      9.57786     10.56239         0.914710      0.388218      0.316622
O      11.62461      2.01160      2.56394        -0.144002     -0.598404     -0.297223
O      11.71548      1.81481     14.97343        -0.588356     -0.143106      0.070270
O      11.62743     13.43672      2.60236         0.180810      0.558989      0.087485
O      11.60654     13.51171     14.85750         0.726583      0.832406      0.258017
O      11.66738      1.92558      6.56898         0.573883      0.182870      0.073105
O      11.73541     13.69046      6.62939         0.085652     -0.533764     -0.082794
O      11.69157      2.04577     10.91725         0.367476     -0.503848     -0.229521
O      11.73385     13.70021     10.81197        -0.642680      0.318043     -0.214097
O      11.64144      5.78915      2.37738         0.541093      0.006526      0.481658
O      11.52029      5.98388     15.02508         1.227357      0.015473     -0.359251
O      11.58388      5.76200      6.66348         1.097318     -0.029689      0.314782
O      11.79182      5.57897     10.76697        -1.404121     -0.225246     -0.300600
O      11.63638      9.58175      2.67931         0.484651      0.281224     -0.377203
O      11.65097      9.70642     14.91666         0.296441      0.076119      0.002161
O      11.65640      9.83247      6.46295         0.695886     -0.322949      0.369427
O      11.61455      9.59861     10.90439        -0.354213      0.350722     -0.719211
O       1.79838      3.87169      2.46544         0.773403      0.100318     -0.152232
O       1.83229      3.91230     15.04057         0.042569     -0.570385     -0.049221
O       1.95411     15.59442      2.48776         0.039689     -0.796212      0.117069
O       1.83839      0.08265     14.86651         0.042994     -1.481265     -0.005315
O      13.52557      3.83559      2.50876         0.514345      0.537188      0.142617
O      13.50880      3.94489     15.03364         0.094178     -1.013151     -0.164944
O      13.43495     15.58812      2.42622         0.216854     -0.725163      0.121153
O      13.65660     15.54065     15.06568        -0.240670      0.020185     -0.181018
O       1.89287      3.96622      6.64554        -0.277648     -0.752492     -0.062619
O       1.85289     15.55666      6.58819         0.254298      0.557291     -0.331730
O      13.73674      3.97543      6.51944        -0.468484     -1.089114      0.608638
O      13.64672     15.56520      6.61191         0.325390      0.050978     -0.348380
O       1.86804      3.76156     10.90060         0.108960      1.027197     -0.152000
O       1.90492     15.47163     10.69415         0.127951      0.805713      0.651848
O      13.86624      3.81982     10.81924        -0.658642      0.246773     -0.264281
O      13.66581      0.02371     10.84812         0.170528     -0.629918      0.085614
O       2.01306      7.80465      2.61914        -0.623433     -0.161538      0.021238
O       1.82401      7.72413     14.94938         0.777671      0.765722      0.229178
O      13.67843      7.71925      2.55845         0.109984     -0.005386     -0.033847
O      13.58780      7.80973     14.82214         0.192226      0.776440      0.226597
O       1.92960      7.78703      6.61979         0.066518      0.021206      0.079772
O      13.44965      7.77521      6.52987         0.121207      1.209284      0.313072
O       1.91944      7.75515     10.58081         0.081239     -0.010496      0.292087
O      13.58722      7.67429     10.88202         0.176941      1.140549      0.122454
O       1.77441     11.60363      2.52445         0.663198      1.116920      0.002636
O       1.93441     11.65631     14.69760         0.330953     -0.017486      0.451774
O      13.73372     11.65094      2.47954        -0.255461     -0.412989      0.302609
O      13.60853     11.73398     14.93801         0.266241     -0.651127      0.158469
O       1.87457     11.74665      6.57011         0.038966     -1.371019      0.140317
O      13.73343     11.61049      6.66457        -0.277095      0.584002      0.087686
O       2.02107     11.60691     10.76417        -0.473032     -0.329916     -0.070892
O      13.43629     11.78365     10.90176         0.829397     -0.895760     -0.886559
O       5.83354      3.88582      2.47189        -0.019661      0.689917      0.301902
O       5.94939      3.83286     14.93234        -0.863393      1.420975      0.357177
O       5.86897      0.00430      2.35784        -0.149849     -0.933159      0.507162
O       5.98944      0.04555     14.98001        -0.916542     -1.158089      0.179559
O       5.64712      3.85427      6.66048         0.568793      0.667693     -0.230490
O       5.60999     15.57483      6.68285         0.862323      0.003764     -0.188802
O       5.83539      3.86472     10.78674        -0.281675     -0.064194     -0.183785
O       5.74642      0.00425     10.85326        -0.162992     -1.218593     -0.214664
O       5.67674      7.84761      2.75016         0.807118     -0.661721     -0.832132
O       5.68370      7.74273     15.00088         0.672136     -0.086125     -0.149200
O       5.95336      7.68408      6.57951        -0.673065      1.009600     -0.508300
O       5.74771      7.75084     10.87991         0.158927      0.236681     -0.312729
O       5.83035     11.66218      2.63345         0.150659      0.281304     -0.645186
O       5.67366     11.60928     15.00814         0.703882      0.341049     -0.163531
O       5.80987     11.66963      6.54227        -0.292066      0.158949      0.359444
O       5.87600     11.54980     10.76759        -0.260868      0.320030     -0.178772
O       9.64423      3.86223      2.55895        -0.244438      0.415819      0.095142
O       9.89842      3.93305     14.99755        -0.540698     -0.749247     -0.225415
O       9.74020     15.55641      2.34986         0.218447     -0.243704      0.742225
O       9.58443     15.55604     15.05951         0.837564      0.438581     -0.202704
O       9.63425      3.82465      6.68067         0.142745      0.287629     -0.105078
O       9.76787      0.00909      6.77369        -0.627516     -0.316327     -0.555183
O       9.58362      3.81558     10.76444         0.218326      0.502385     -0.236863
O       9.60259     15.56601     10.78895         0.749685     -0.123246      0.041128
O       9.70601      7.69914      2.52516        -0.090897      0.539301      0.228638
O       9.56789      7.80986     14.90165         0.316879      0.412800     -0.100844
O       9.71179      7.74369      6.62457         0.014922      0.660094      0.241393
O       9.73223      7.68060     10.77982         0.180788      0.326085     -0.263672
O       9.66976     11.53468      2.36569         0.304695      1.074420      0.693937
O       9.65657     11.67433     15.11908        -0.085196      0.346598     -0.459436
O       9.66770     11.71556      6.54490        -0.149863     -0.216686      0.187496
O       9.79026     11.73214     10.67504        -0.135654     -1.169923      0.045672
