  # total energy = -7878.74185106 
CRSYTAL
PRIMVEC
    15.6080000000000005    0.0000000000000000    0.0000000000000000
     0.0000000000000000   15.6080000000000005    0.0000000000000000
     0.0000000000000000    0.0000000000000000   16.6239999999999988
PRESSURE
-0.619816 -0.622384 0.083092 -0.019477 -0.371216 -0.073216
PRIMCOORD
320 1
Pb       3.74529      3.83859      4.12903         0.543347     -0.401537      0.285263
Pb       3.74125      3.74081     16.60016         0.431487      0.048755     -0.333480
Pb       3.93685     15.42817      4.32049        -0.010772      0.748584     -0.882489
Pb       4.00219     15.60386      0.07829        -0.047332     -0.325795     -0.073780
Pb      15.58115      3.88593      4.13988         0.120615     -0.309057      0.924485
Pb      15.58186      3.96890     16.60684         0.171827      0.096149     -0.161290
Pb       0.10296     15.59743      4.30803        -0.252337      0.091330     -0.630454
Pb      15.59835     15.55350      0.03112         0.660127     -0.223721      0.122539
Pb       4.04636      4.05934      8.31523        -0.221820     -0.688075     -0.435824
Pb       3.88273      0.02715      8.48532        -0.016657     -0.018312     -0.616767
Pb       0.11917      3.95168      8.25144        -0.056233     -0.511540     -0.764524
Pb       0.00342      0.07637      8.36151        -0.151530     -0.257494     -0.441891
Pb       3.96449      3.89714     12.31359        -0.620098     -0.240064      0.478648
Pb       3.92842      0.12552     12.33872         0.438073     -0.109084      0.405501
Pb      15.49128      3.79189     12.32663         0.836729      0.544656      0.465527
Pb      15.44015     15.56060     12.32442         0.627612     -0.325182      0.105525
Pb       3.93740      7.66279      4.24770         0.322033      0.255217     -0.747387
Pb       3.85490      7.84151      0.05058         0.004532     -0.254322     -0.747796
Pb      15.50540      7.73842      4.13099         0.357308      0.009222     -0.400894
Pb       0.02075      7.78802      0.01967        -0.225203     -0.346123     -0.044985
Pb       3.94213      7.86574      8.26103         0.002289     -0.686005      0.266391
Pb       0.20517      7.87853      8.00984        -1.204178     -0.277744      1.285011
Pb       3.75606      7.80659     12.49051         0.076371      0.237349     -0.101609
Pb       0.04551      7.73604     12.39604        -0.139632      0.184429     -0.033133
Pb       4.00799     11.59382      4.29220        -0.363460      0.353982     -0.211601
Pb       3.91752     11.63377     16.59980        -0.533892      0.791078      0.593969
Pb       0.06717     11.68592      4.25718         0.150981      0.300933     -0.912190
Pb       0.03153     11.61237     16.59517         0.074242      0.417557      0.317198
Pb       3.89084     11.46226      8.32985        -0.113907      0.950546     -0.017959
Pb      15.56047     11.72888      8.40174         0.011893     -0.196718     -0.123602
Pb       3.78323     11.73634     12.61898        -0.097018      0.036146     -0.979099
Pb      15.36541     11.73479     12.45149         0.537004     -0.343199     -0.276860
Pb       7.86156      4.07651      4.13064        -0.622309     -0.405205     -0.525659
Pb       7.72580      3.71123      0.12223        -0.468122      0.168573     -0.201265
Pb       7.86878      0.05158      4.16451        -0.815887     -0.183393     -0.281321
Pb       7.81221     15.40694     16.55998        -0.521146      0.239951      0.137666
Pb       7.86753      3.97507      8.06537        -0.396946     -0.491289      1.524252
Pb       7.70863     15.57917      8.38248         0.383053      0.261348     -0.261065
Pb       7.78255      4.12813     12.49922         0.325641     -0.478488     -0.392057
Pb       7.79835      0.08696     12.42872        -0.150622     -0.304319     -0.039555
Pb       7.73747      7.76097      4.11986        -0.075287      0.354761     -0.782490
Pb       7.90107      7.65979      0.04207        -0.741404      0.004374     -0.334564
Pb       7.69170      7.78071      8.40380         0.314484     -0.292681      0.142718
Pb       7.68469      7.97330     12.58931         0.435595     -0.465521     -0.558089
Pb       7.75079     11.64905      4.14451         0.165946      0.147207      0.026438
Pb       7.91346     11.51172      0.05252        -0.690255      0.800457     -0.088697
Pb       7.73012     11.57627      8.45934         0.614133      0.126345     -0.761215
Pb       7.70145     11.77130     12.55216         0.395484     -0.099303     -0.746555
Pb      11.55878      4.00106      3.95600         0.160099     -0.377804      0.634133
Pb      11.62802      3.67005     16.42179         0.237757      0.270334      0.340237
Pb      11.96951      0.17485      4.18689        -0.291015     -0.149266     -0.272812
Pb      11.78351     15.57962      0.04558        -0.435392      0.144764     -0.717378
Pb      11.71004      3.62667      8.06521        -0.481887      1.171491      1.065019
Pb      11.78687     15.39722      8.27474        -0.624546      0.526452      0.135355
Pb      11.53907      3.95702     12.36807        -0.233465     -0.413864      0.070818
Pb      11.83655      0.04228     12.57164        -0.940773      0.213496     -0.147926
Pb      11.66160      8.01254      4.14175        -0.177920     -0.525957      0.072432
Pb      11.70224      7.73818     16.55571         0.184946     -0.171463     -0.150479
Pb      11.71516      7.74924      8.22061         0.294300      0.047073      0.189491
Pb      11.91252      7.51863     12.39306        -0.486411      0.605618      0.459929
Pb      11.53187     12.07379      4.10401         0.241819     -0.664773      0.649385
Pb      11.69148     11.75505      0.04521         0.058162     -0.253583     -0.440196
Pb      11.54759     11.48920      8.10370         0.029945      0.353141      0.600340
Pb      11.64290     11.53352     12.51689        -0.231855      0.412196     -0.406221
Ti       1.91505      1.99982      2.17205         0.357662     -1.003993      0.348703
Ti       1.84549      2.00942     14.50097         1.816124     -0.256192      0.304838
Ti       1.90448     13.72898      2.23146        -0.313898     -0.512654     -1.627065
Ti       1.86343     13.78187     14.62923         0.248415      0.189251      1.155858
Ti      13.67157      2.02870      2.20968         0.156144     -0.625734      0.684265
Ti      13.77975      1.83222     14.62581        -1.459555      0.518260     -0.818587
Ti      13.62642     13.66497      2.20463         0.754293      0.803412      0.906613
Ti      13.62758     13.51962     14.68789        -0.018094      0.327983      0.270541
Ti       2.09921      1.81231      6.38500        -0.469931      1.721060     -0.118787
Ti       1.91514     13.58059      6.47226         0.420534      0.094076     -0.510933
Ti      13.67523      1.87157      6.43029         1.193775      0.090978     -1.012510
Ti      13.62676     13.53886      6.38583        -0.000220      0.859899     -0.050491
Ti       1.88985      1.88033     10.47397         0.584624      1.196159     -0.399620
Ti       1.91890     13.59475     10.48547        -0.041256     -0.539782      0.212889
Ti      13.59721      1.95864     10.45370        -0.634083     -0.076954      0.907077
Ti      13.47319     13.64542     10.39414         1.290237     -1.096241      0.843374
Ti       1.86410      5.88194      2.21489         0.492782      0.054270      0.561443
Ti       1.86559      5.91261     14.63480         0.299613     -0.795885     -0.109659
Ti      13.56476      5.83232      2.28452         0.238979     -0.485374     -1.179618
Ti      13.59792      5.66499     14.66964         0.791488      1.461977      0.166444
Ti       1.99077      5.73990      6.37426         0.215387     -0.837443      0.020198
Ti      13.57766      5.82811      6.30821         0.402966     -0.098600      1.114366
Ti       1.89306      5.88465     10.40332         1.166155     -0.469056      1.360253
Ti      13.73703      5.78988     10.37626        -1.182699      1.105503      0.270387
Ti       1.90786      9.73781      2.27339         0.311351      0.839400     -0.036429
Ti       1.87762      9.84410     14.69159        -0.038879     -1.686789     -0.747420
Ti      13.60013      9.83314      2.20815         0.721875      0.008240     -0.503268
Ti      13.63429      9.62216     14.73427        -0.403038     -0.075332      0.333723
Ti       2.04440      9.71023      6.28321        -0.699189      0.884695      1.086312
Ti      13.71797      9.73277      6.22774        -0.717641      0.232331      0.584667
Ti       1.96203      9.78260     10.40961        -0.246197      0.085536      0.654978
Ti      13.62675      9.77403     10.45235         0.732065     -0.420162      0.181778
Ti       5.76453      1.96503      2.24269        -0.205448     -0.362546      0.450250
Ti       5.84598      1.89353     14.71116        -0.835934     -0.251921      0.288356
Ti       5.74414     13.66844      2.30562         0.507289      0.617883     -0.925622
Ti       5.71557     13.60540     14.63781         0.594471      1.445202      0.578934
Ti       5.91561      1.87704      6.29808        -1.263918      0.963595     -1.029516
Ti       5.80855     13.65578      6.39318         0.467537     -0.464035     -0.558345
Ti       5.93040      2.02503     10.37312         0.081626     -0.405297      1.383155
Ti       5.79061     13.63827     10.44294         0.377883      0.009429      2.512768
Ti       5.63551      5.80552      2.09987         1.787427     -0.199940     -0.518316
Ti       5.76138      5.72833     14.77559        -0.476335      0.475631      1.147110
Ti       5.90460      5.81270      6.25980        -1.196843      0.128849      0.125228
Ti       5.76187      5.96566     10.52203         1.226616     -0.057690     -0.534753
Ti       5.79235      9.80761      2.16072         0.194515     -0.780495      1.684966
Ti       5.80769      9.77215     14.64571         0.126823     -1.222278      0.571378
Ti       5.91311      9.68702      6.41224         0.857407      0.098731     -1.062818
Ti       5.83242      9.76675     10.58355         0.111167      0.248225      1.311080
Ti       9.63347      1.94336      2.22807         0.001567     -0.401583     -0.467055
Ti       9.67980      1.83676     14.62656         0.562578     -0.014071     -0.856737
Ti       9.63928     13.73142      2.21017        -0.335261     -0.645252      1.682994
Ti       9.71619     13.54862     14.68393        -0.421821      0.638450     -0.686958
Ti       9.72563      1.93887      6.32571        -0.548281     -0.348640     -0.283334
Ti       9.67372     13.75650      6.44444        -0.841684     -1.111315     -0.474956
Ti       9.70038      1.88240     10.48069         0.063513      0.374213      0.524757
Ti       9.69647     13.60001     10.48699        -0.343761     -0.271370      0.781147
Ti       9.67027      5.84407      2.09793        -0.578332      0.877946     -0.282579
Ti       9.67691      5.81704     14.71797         0.429402      0.189987     -0.105683
Ti       9.71358      5.96827      6.36787         0.034586     -0.598445     -0.669842
Ti       9.67566      5.86759     10.43361        -0.180329     -0.039787      0.556404
Ti       9.76887      9.76984      2.10037        -1.226277     -0.112944      1.865236
Ti       9.71287      9.73121     14.58984         0.225163     -0.366554      1.753814
Ti       9.71839      9.66319      6.33538        -0.557057      1.884101     -0.845755
Ti       9.89776      9.64704     10.50440        -2.116386      0.581333      0.584826
O       1.81233      1.93450      0.37859         0.112322      0.112572      0.252621
O       1.88316      1.91323     12.72432        -0.160463      0.272727     -0.978442
O       1.74651     13.93145      0.34104         0.066891     -0.330071      1.181221
O       2.00329     13.52566     12.89309        -0.104417      0.025473     -0.977971
O      13.70510      2.14471      0.44769        -0.063909     -0.417381     -0.892399
O      13.74384      1.73073     12.73790         0.020882      0.282609      0.673983
O      13.62493     13.76983      0.46356         0.211238     -0.101164     -1.482683
O      13.52632     13.59661     12.90132         0.318650      0.016553     -0.346024
O       1.94096      2.11175      4.61969         0.154203     -0.678026     -0.331122
O       1.93910     13.64336      4.65493         0.001109     -0.341584      0.132795
O      13.76741      1.76041      4.61909        -0.680087      0.212401      0.581164
O      13.61083     13.82260      4.61829        -0.452106     -0.327471     -0.491105
O       2.10924      1.86297      8.63895        -0.602754     -0.151080      0.960087
O       1.93545     13.60671      8.69518        -0.337783      0.102261     -0.267236
O      13.51177      1.88835      8.70721        -0.047607      0.372992     -0.622850
O      13.68983     13.53105      8.65098        -0.409866      0.084328     -0.847560
O       1.77613      5.94858      0.47416         0.407349     -0.313883     -0.780707
O       1.87816      5.81694     12.85480        -0.512992      0.774131     -0.554874
O      13.60548      5.64426      0.48675         0.196617      0.172600      0.677111
O      13.81598      5.85831     12.89220        -0.488135     -0.114588      0.056675
O       1.86623      5.61322      4.63381         0.498415      1.065000     -0.807539
O      13.50293      5.79939      4.56119         0.256510      0.056205      0.044473
O       2.20903      5.87704      8.67203        -0.727729     -0.192527     -0.626624
O      13.44920      5.85437      8.63909         0.486041     -0.068909     -0.007829
O       1.92799      9.61366      0.49488         0.004976      0.205490     -0.342219
O       1.77636      9.72771     12.88566         0.510009      0.192185      0.314678
O      13.66012      9.66489      0.41398        -0.270020      0.315321      0.966982
O      13.61234      9.92744     12.95121         0.107822     -0.903942      0.204334
O       2.01128      9.88613      4.55178        -0.435838     -0.224754     -0.657246
O      13.57705      9.88433      4.48500         0.078200     -0.764333     -0.447742
O       2.00139      9.83088      8.60349        -0.143688     -0.147154      0.301350
O      13.56199      9.81123      8.69228         0.226146     -0.318169     -0.395632
O       5.79136      2.04525      0.44303        -0.164715     -0.677179     -0.775158
O       5.96677      1.81091     12.94810        -0.377008      0.339405     -0.323759
O       5.64819     13.70719      0.50248         0.238985     -0.431738      0.243195
O       5.73754     13.64602     12.85310        -0.298556     -0.139091      0.399602
O       5.74186      1.91015      4.46051         0.494976      0.312137      1.763305
O       5.65679     13.78834      4.56148         0.151023     -0.509542      1.018316
O       5.82375      1.89268      8.63907         0.168684     -0.005168     -0.581156
O       5.94895     13.56207      8.71564        -0.016149      0.276946     -1.109878
O       5.75216      5.81227      0.28697        -0.463052      0.425272      0.152039
O       6.06199      5.72583     13.03117        -0.419650      0.297404     -0.975619
O       5.81006      5.80385      4.47749         0.261806      0.264956     -0.133020
O       5.71322      6.07004      8.70959        -0.074254     -0.400024      0.816071
O       5.64773      9.90932      0.42223         0.148780     -0.185760     -0.836027
O       5.73054      9.75844     12.84826         0.163727      0.303846      0.929682
O       6.04972      9.75490      4.60645        -0.696082     -0.511893      0.718893
O       5.84120      9.68214      8.79501        -0.033448     -0.058453     -0.972960
O       9.75540      1.94524      0.44247        -0.103586      0.009556      0.138264
O       9.79858      1.83642     12.78438        -0.431792     -0.218959      1.502450
O       9.60306     13.46568      0.52199         0.344328      0.068056     -1.950209
O       9.77969     13.59899     12.90849         0.057540     -0.090525     -0.014833
O       9.57736      1.85082      4.51486         0.461504      0.333374      0.378888
O       9.68004     13.75527      4.64918         0.600965     -0.087321     -0.342316
O       9.67404      2.03263      8.70906         0.419784     -0.134362     -0.239395
O       9.61304     13.54220      8.70483        -0.133201      0.299281      0.374301
O       9.77486      5.97173      0.31284         0.004490     -0.584433      0.559483
O       9.65657      5.85316     12.93377        -0.050012     -0.387884     -0.185210
O       9.52629      5.85870      4.53357         0.393843      0.240220      0.309905
O       9.75395      5.82423      8.65768         0.037889      0.336883     -0.211066
O       9.62301      9.78442      0.35304         0.326450      0.134564     -0.315555
O       9.73478      9.90074     12.87649         0.189311     -0.596761     -0.897078
O       9.56328      9.58693      4.50184         0.360940      0.015808      1.063780
O       9.84780      9.79502      8.71501        -0.238567     -0.566486     -0.250278
O       3.89137      1.88698      2.49874        -1.878768      0.023636     -0.104943
O       3.83699      1.88565     14.79485        -0.321811     -0.270015      0.606230
O       3.80281     13.73486      2.49626        -0.492552      0.193263      0.417648
O       3.73425     13.75906     15.10960         0.552212     -0.224059     -0.720791
O      15.55600      2.06659      2.63896         0.730120      0.249583     -0.765563
O      15.59767      2.20267     14.79514        -0.747693     -0.392693      0.403364
O      15.58777     13.69053      2.63838        -0.663849     -0.267170     -0.008650
O      15.52223     13.56250     14.89741        -0.077043     -0.135302      0.202468
O       3.93865      2.08719      6.63744         0.136066     -0.741056      0.031794
O       3.93449     13.67796      6.84321        -0.194762     -0.336236     -0.416938
O      15.60479      1.84281      6.70281        -0.098543     -0.055816      0.562489
O      15.47280     13.79078      6.64089         1.538386     -0.744347      0.248932
O       4.00431      1.94459     10.78129        -1.263696     -0.619584      0.024997
O       3.87616     13.74676     10.76493         0.196785      0.215371     -0.231788
O      15.53571      1.95695     10.61798         0.470177      0.071050      0.127708
O       0.02137     13.41083     10.76087        -0.517194      0.495372      0.075217
O       3.82751      6.10089      2.46775        -0.897191     -0.054746      0.372929
O       3.82407      5.89813     14.77845         1.051304      0.346968      0.622163
O       0.05188      5.76771      2.70793        -1.524800     -0.081478     -0.511032
O      15.56307      5.81450     15.05742        -0.474117     -0.559490     -0.076000
O       3.90341      5.68581      6.52679         0.038301      0.733859      0.128233
O       0.00240      5.82725      6.75384        -0.380541      0.154315     -0.218767
O       3.91440      5.84004     10.96195        -0.512195      0.456727     -0.267176
O       0.05679      5.85248     10.68038        -0.710203     -0.098866     -0.297809
O       3.84162      9.88805      2.65728        -0.057190     -1.066860     -0.379829
O       3.80282      9.55903     14.96734         0.367497      0.820789     -0.133467
O      15.50547      9.81698      2.66229        -0.028499      0.135156     -0.262173
O      15.54477      9.71199     15.07022         0.093020      0.240900     -0.139968
O       3.92669      9.67138      6.67880         0.271158      0.617321     -0.372239
O       0.03911      9.80194      6.61563        -0.469545     -0.391747     -0.380052
O       3.85929      9.69615     10.80781        -0.145894      0.090579     -0.010623
O      15.57493      9.83602     10.69772        -0.091151      0.113748      0.068887
O       7.65942      1.98482      2.52309         1.694896      0.430694     -0.090258
O       7.72586      1.88655     15.02603         1.252715      0.001233     -0.036827
O       7.69718     13.51107      2.53522         0.600262      0.334298      0.097170
O       7.75530     13.61777     14.96949        -0.141914     -0.432924     -0.093991
O       7.75279      1.95449      6.66178         0.417207      0.137008     -0.106078
O       7.72877     13.62042      6.53374        -0.094964      0.448423      0.755231
O       7.84446      1.92937     10.77787        -1.067944      0.361455     -0.027510
O       7.77253     13.58035     10.93459         0.281905     -0.275110     -0.541991
O       7.62186      5.74272      2.27287         1.368289      0.161774      0.615877
O       7.88797      5.64389     15.15869        -1.133239      0.127026     -0.311579
O       7.80816      5.93218      6.68449        -0.610380      0.005379     -0.098954
O       7.71940      5.93067     10.69760        -0.122411     -0.372863      0.394107
O       7.67086     10.02972      2.40418         0.609404     -0.569878     -0.432694
O       7.74593      9.92075     14.97285        -0.564827     -0.366098     -0.557673
O       7.80573      9.48609      6.85953        -0.886473      1.249200     -0.496231
O       7.78161      9.75408     10.98158        -0.576705      0.127992     -0.658828
O      11.67525      2.03530      2.51330        -0.471901     -0.308237      0.181625
O      11.76214      1.69502     14.86831        -0.351710      0.610855      0.444608
O      11.64023     13.71568      2.41022         0.049024      0.246619      0.490830
O      11.65443     13.63643     15.02231         0.602784     -0.053366      0.582710
O      11.64998      1.85211      6.53903        -0.139374      0.466475      0.103433
O      11.56675     13.49434      6.76038         0.857423      0.984846     -0.362453
O      11.65996      1.92124     10.87928         0.827782      0.178863     -0.460219
O      11.69640     13.68295     10.71735        -1.193399      0.227234     -0.069295
O      11.59741      5.84882      2.47517        -0.175425      0.067545      0.169029
O      11.68557      5.81579     14.99701        -0.206382      0.161333     -0.292915
O      11.58398      5.97674      6.60451         0.773389     -0.565919     -0.291407
O      11.71258      5.83184     10.91092        -0.319861     -0.038459     -0.630327
O      11.62631      9.62111      2.48692         0.735220      0.119173     -0.408519
O      11.63289      9.61861     15.08899         0.521936      0.488873     -0.470613
O      11.71412      9.65267      6.53346        -0.287281     -0.028128      0.019114
O      11.69615      9.61169     10.80930         1.024569     -0.216463      0.371677
O       2.15426      3.97081      2.42267        -0.820373     -0.710501     -0.173644
O       1.98475      3.93435     14.88191        -0.272576     -0.383371      0.436701
O       1.80882      0.08649      2.52166         0.054371     -0.138329      0.263387
O       1.62996      0.05780     14.66185         0.056664     -0.279397      0.609908
O      13.57738      3.91171      2.76053         0.060687     -0.047062     -0.551315
O      13.52476      3.83600     14.87716         0.129430     -0.791533     -0.040167
O      13.69298      0.06126      2.47160        -0.494404      0.171411      0.004767
O      13.69244     15.60650     14.92963         0.403895     -0.549544      0.178629
O       1.90886      3.84021      6.61241        -0.344623      0.461014      1.249918
O       2.01787     15.52172      6.57515         0.009865      0.488510      0.555467
O      13.65910      3.82939      6.72260        -0.220804      0.505931     -0.373629
O      13.52895     15.60152      6.76713        -0.074813     -0.591206      0.063280
O       1.90744      3.91258     10.74111         0.182121     -0.428858     -0.217172
O       1.76347     15.59954     10.67600         0.565913     -0.144467      0.312219
O      13.67368      3.97026     10.83051        -0.250655     -1.564504     -0.424619
O      13.71813     15.53932     10.56725        -0.119691      0.417692      0.627466
O       1.71546      7.83542      2.56412         0.599501      0.074710      0.545066
O       1.77395      7.76641     15.03468         0.385646      0.509414     -0.262058
O      13.73724      7.67530      2.56667        -0.484795      1.304633      0.108008
O      13.67461      7.68577     15.12215        -0.410809      0.889780     -0.694363
O       2.01627      7.81400      6.65264         0.059570     -0.354453     -0.691671
O      13.64124      7.74619      6.51201         0.269403      0.699896      0.176806
O       1.91802      7.85708     10.61845        -0.083097     -0.823763      0.698339
O      13.71679      7.69661     10.87386        -0.134961      0.879884     -0.310613
O       1.86827     11.76155      2.24914        -0.257360     -0.098478      0.869066
O       1.91038     11.65581     15.03786         0.074933      0.449649     -0.062592
O      13.49737     11.77533      2.32334         0.089557     -1.093049      0.468256
O      13.62932     11.63937     15.10753        -0.460761      0.337561     -0.096747
O       1.97101     11.65924      6.68995        -0.069655      0.570641     -0.056323
O      13.64594     11.67255      6.45223         0.171532     -0.217651      0.617289
O       2.11326     11.67075     10.74331        -0.183064      0.361657      0.071355
O      13.49884     11.67030     10.76021         0.227473     -0.117797      0.307099
O       5.57089      3.93667      2.30481         0.164389      0.250182      0.707953
O       5.68874      3.81108     15.12971         0.563328      0.631873     -0.788964
O       5.83567      0.04581      2.54122        -0.125791     -1.156687     -0.050764
O       5.84574     15.49549     15.11898        -0.310780      0.834210     -0.340619
O       5.86726      3.98319      6.71381         0.502471     -0.710983     -0.191120
O       5.89622      0.04443      6.61754        -0.436544     -1.065115      0.362500
O       5.75231      3.90483     10.70615         0.573088      0.644006      0.113230
O       5.97847      0.02535     10.79762        -0.573990     -0.600171     -0.490068
O       5.85010      7.79952      2.47122        -0.210106      1.228405      0.065859
O       5.96906      7.86662     15.03389        -0.293710     -0.158136     -0.337740
O       5.71304      7.70311      6.61814         0.268497      0.704090     -0.089801
O       5.77701      7.87585     11.00656         0.035329     -1.291411     -0.276892
O       5.65655     11.75862      2.75278         0.468116     -0.334867     -0.817312
O       5.64568     11.78001     15.00692        -0.035244     -1.366920     -0.422306
O       5.96135     11.58128      6.57819        -0.585965      0.752740      0.566176
O       5.79700     11.68133     10.82281        -0.162347      0.550658     -0.106062
O       9.55195      3.92188      2.42720         0.748606     -0.003734      0.266966
O       9.81338      3.70280     14.84450         0.015840      0.777056      0.291646
O       9.55321     15.59505      2.41085         0.240377      0.480791      0.044489
O       9.71942     15.51686     15.11774         0.018652      0.105639     -0.231258
O       9.60741      3.88454      6.61601         0.939818      0.269189     -0.654864
O       9.63504      0.07794      6.80583         0.256803     -1.116675     -0.228340
O       9.61590      3.98581     10.88999         0.737617     -0.337771     -0.169181
O       9.59112     15.59002     10.80627         0.685070     -0.787576     -0.659554
O       9.50755      7.81534      2.34513         0.196321     -0.087528      0.341730
O       9.59364      7.80369     14.86514         0.042693     -0.245579      0.394200
O       9.61642      7.86928      6.69192         0.989858     -2.064630      0.143809
O       9.60611      7.77844     10.84834         0.694396     -0.155882     -0.216707
O       9.82447     11.65060      2.66367        -0.352993      0.290273     -0.775298
O       9.73103     11.63596     14.96026         0.456613      0.718571      0.442372
O       9.61439     11.65003      6.66298         0.092449     -0.534361     -0.138513
O       9.80854     11.57042     10.83408        -0.018246      1.522190     -0.194666
