  # total energy = -7881.18844701 
CRSYTAL
PRIMVEC
    15.6080000000000005    0.0000000000000000    0.0000000000000000
     0.0000000000000000   15.6080000000000005    0.0000000000000000
     0.0000000000000000    0.0000000000000000   16.6239999999999988
PRESSURE
-0.452613 -0.888668 -1.16439 -0.151696 -0.267686 0.078913
PRIMCOORD
320 1
Pb       4.00343      3.99451      4.16858        -0.282603     -0.385414     -0.475518
Pb       4.07440      4.10192      0.13717        -0.292039     -0.906544     -0.065618
Pb       3.87432      0.03319      4.02018        -0.026854     -0.509242      0.220469
Pb       3.77170     15.57418     16.62091         0.109664     -0.238206     -0.399838
Pb       0.09284      3.83763      4.15412        -0.184319      0.168361     -0.345128
Pb      15.45494      3.82345      0.00783         1.065955     -0.117035     -0.443830
Pb      15.53732     15.57017      4.00107         0.066586     -0.027956      0.109765
Pb      15.47726     15.55613     16.58228         0.536694      0.214541     -0.191978
Pb       3.66687      3.79570      8.34866         0.276432      0.304531     -0.156806
Pb       3.88893      0.07367      8.32699         0.413121     -0.213347     -0.684544
Pb      15.55664      3.78643      8.27253        -0.257149      0.657522      0.137227
Pb       0.14726     15.57507      8.19833        -0.666571      0.076359      0.064401
Pb       3.92571      3.95255     12.35751        -0.489455     -0.364103      0.848590
Pb       3.83804     15.40065     12.26849        -0.005680      0.740597      1.026478
Pb      15.58573      3.74942     12.42249         0.037071      0.964428      0.627215
Pb      15.53753      0.30727     12.57488         0.305756     -1.216335      0.595538
Pb       3.80509      7.84807      4.34272         0.237178      0.001940     -0.845167
Pb       3.81045      7.73730      0.01817         0.189445      0.423968     -0.283800
Pb       0.25406      7.90695      4.23621        -1.215227     -0.590535     -0.230759
Pb       0.03175      7.73409      0.03053         0.086235      0.413408     -0.442631
Pb       4.09641      7.69108      8.06734        -0.781093      0.189737      0.957315
Pb      15.42351      7.76002      8.55072        -0.218004      0.070646     -0.358344
Pb       3.91853      7.89173     12.44756        -0.051495     -0.233660     -0.131271
Pb       0.00130      7.96792     12.60351        -0.322372     -0.796914     -0.833160
Pb       3.83940     11.66971      4.08813        -0.162355      0.119553     -0.434272
Pb       3.92747     11.59516     16.43537        -0.237315      0.326651      0.673677
Pb      15.59124     11.65557      4.07671        -0.006588      0.137243     -0.202427
Pb      15.54047     11.82511     16.55629         0.264200     -0.258258      0.011690
Pb       3.82869     11.62558      8.06286        -0.089237      0.115553      0.695925
Pb      15.55908     11.62071      8.34062         0.304827     -0.277076     -0.312377
Pb       4.06211     11.69633     12.30812        -0.725555     -0.368516      0.153605
Pb       0.19179     11.51404     12.29288        -0.112400      0.792690      0.439404
Pb       7.87521      3.74743      4.20422        -0.349704      0.369426     -0.390076
Pb       7.86534      4.00919      0.12309        -0.208097     -0.222610     -0.290965
Pb       7.79637     15.43364      3.98452         0.113349      0.390764      0.394574
Pb       7.92132      0.17531      0.11172        -0.651087     -0.393181     -0.539474
Pb       7.57346      3.99230      8.33493         0.793509     -0.406575     -0.024896
Pb       7.86486     15.50618      8.36028        -0.088780      0.131331     -0.481631
Pb       7.64946      3.80251     12.39929         0.528565      0.015658      0.195414
Pb       7.65610     15.56390     12.56729         0.433059     -0.033964     -0.814413
Pb       7.69531      7.86762      4.16602         0.473466     -0.454646     -0.030328
Pb       7.87377      8.03341     16.59540        -0.781117     -0.897337     -0.000765
Pb       7.80364      7.77117      8.26740         0.178357     -0.145055     -0.296452
Pb       7.86430      7.56088     12.31652        -0.210955      0.440956      0.199120
Pb       8.00674     11.67931      4.34148        -0.428013      0.055620     -0.743773
Pb       7.66589     11.66497      0.04364         0.025238      0.354644     -0.523209
Pb       7.59314     11.74104      8.07963         1.097721     -0.051095      0.745628
Pb       7.67383     11.47383     12.40945         0.572957      0.473810     -0.291159
Pb      11.76518      3.95443      4.35834         0.173882     -0.681383     -0.576966
Pb      11.83490      4.09374      0.11373        -0.827861     -0.813316     -0.395379
Pb      11.48206     15.48477      4.16317         0.759027      0.235489     -0.314322
Pb      11.55306     15.52630      0.10765         0.455509     -0.106009     -0.493172
Pb      11.78301      4.09059      8.38374        -0.284923     -0.617087     -0.578307
Pb      11.62905      0.11640      8.24358         0.332733      0.158895     -0.269554
Pb      11.86871      3.81629     12.61801        -0.305219      0.197219     -0.272098
Pb      11.92169     15.52519     12.41357        -0.880955      0.249183      0.342248
Pb      11.72382      7.42716      4.00056        -0.021869      1.519737      0.592980
Pb      11.35283      7.77422      0.02117         1.153381      0.143953     -0.360554
Pb      11.52455      7.96854      8.19993         0.747934     -0.426011      0.448037
Pb      11.53497      7.86862     12.67187         0.248533      0.023672     -0.837787
Pb      11.57849     11.28769      4.27638         0.675794      1.301428     -0.451559
Pb      11.80976     11.79608     16.51419        -0.073179     -0.130421      0.296694
Pb      12.07878     11.95881      8.39752        -1.307587     -0.800140     -0.185939
Pb      11.63565     11.87786     12.40805        -0.101086     -0.360610      0.135354
Ti       2.00224      1.91590      2.19026        -1.518748      0.645355     -1.146490
Ti       2.02047      1.99746     14.67460        -1.295364      0.161055      0.170293
Ti       1.94125     13.63840      2.18173        -0.131361     -0.577582     -0.218256
Ti       2.02675     13.66285     14.49074        -0.992731     -0.055207     -0.215396
Ti      13.59507      1.97038      2.26308         0.465699     -0.273354     -0.175831
Ti      13.58945      1.92627     14.78987         0.181584      0.265977     -0.123341
Ti      13.57847     13.59961      2.33087         0.093396     -0.187821     -1.229017
Ti      13.69332     13.68326     14.58689        -0.230521     -0.671511     -0.382735
Ti       1.97641      1.90637      6.31983        -1.259949      0.012394     -0.464937
Ti       1.91424     13.51821      6.28877        -0.180439      0.798193     -0.344909
Ti      13.69396      1.89468      6.30466        -1.201449      0.316015      1.237531
Ti      13.74403     13.66053      6.29360        -0.680041      0.129605     -0.322697
Ti       1.91129      1.91904     10.58086         0.220297      0.029044      0.257970
Ti       1.92492     13.67272     10.39600        -0.262665     -1.524325      1.125453
Ti      13.61740      1.99563     10.46984        -0.016895     -0.200232     -0.067657
Ti      13.79226     13.66769     10.47768        -0.957785      0.540016      1.576121
Ti       1.96881      5.82512      2.24234        -0.693251     -0.340813     -0.088384
Ti       1.95047      5.83791     14.61785        -0.508546     -0.496501     -0.696769
Ti      13.72341      5.85748      2.12384         0.790943     -0.362149      1.642205
Ti      13.62097      5.86983     14.68167         0.414668      0.111904     -0.687263
Ti       1.79876      5.81199      6.41175         0.121525     -0.161682      0.311863
Ti      13.59994      5.89398      6.32817         0.562704     -0.197127      0.598368
Ti       1.83752      5.77889     10.58368        -0.635079      0.894401     -0.697903
Ti      13.59185      5.90957     10.56683         0.435660      0.575852     -0.015931
Ti       1.93092      9.70589      2.18664         0.035212      0.907109     -0.861340
Ti       1.93768      9.76934     14.64612        -0.254031     -0.111088      0.814727
Ti      13.65885      9.69131      2.26719        -0.086521      0.148639     -0.451808
Ti      13.64381      9.69403     14.70970        -0.006592      0.478727     -0.445218
Ti       1.85268      9.61232      6.46487        -0.517027      0.933018     -0.457688
Ti      13.60143      9.74457      6.26821         0.673403     -0.255563      0.434755
Ti       1.98377      9.65302     10.36500        -0.221116      0.152692      0.979622
Ti      13.51431      9.80480     10.66162         0.399115     -1.195892     -0.374414
Ti       5.83134      1.89772      2.19662         0.174961      0.767938     -0.537763
Ti       5.82820      1.91406     14.72923        -0.038360     -0.027491      0.419229
Ti       5.85881     13.55585      2.22309        -0.846841     -0.455291     -1.247176
Ti       5.85195     13.63574     14.69475         0.074172     -0.108242      0.710722
Ti       5.84683      1.90684      6.28862        -0.110328     -0.620455      0.617719
Ti       5.73674     13.57334      6.21737         0.466739      1.798045      0.881443
Ti       5.78632      1.92127     10.52173         0.626869     -0.267547     -1.091561
Ti       5.83120     13.59302     10.45706         1.053622      0.021189      0.008967
Ti       5.86413      5.90383      2.20268         0.401924     -0.404450     -0.017814
Ti       5.83754      5.80041     14.68337        -0.003904      0.008638      0.142636
Ti       5.77729      5.70509      6.25592         0.388802      0.700190      0.116285
Ti       5.75120      5.79904     10.46761         0.764644      0.602275      0.395787
Ti       5.84466      9.71111      2.31598        -0.191530      0.526972     -1.229911
Ti       5.88880      9.61740     14.63183        -0.454872      0.650178      0.329288
Ti       5.82887      9.67117      6.28278         0.271052     -0.117934      0.231721
Ti       5.86010      9.61853     10.33920         0.063719      0.280912      0.020744
Ti       9.74705      1.95756      2.20579         0.341930      0.556766      0.523225
Ti       9.74746      1.93351     14.66142         0.299663      0.402569      0.642273
Ti       9.76097     13.51918      2.17895         0.369033      0.052881      0.139549
Ti       9.68800     13.65620     14.65952        -0.105303     -0.679430      0.246376
Ti       9.66567      2.03331      6.37523         0.853340     -0.340731      0.280260
Ti       9.80448     13.65916      6.41500        -0.088318     -0.618472     -0.726941
Ti       9.79354      1.90841     10.56235        -0.914452     -0.057315     -0.416103
Ti       9.76104     13.70126     10.50437        -1.535914     -0.571225     -0.428854
Ti       9.73462      5.83925      2.25341        -1.178785     -0.537919      0.109906
Ti       9.64993      5.72529     14.68276         0.349813      0.054537     -0.099162
Ti       9.68630      5.79281      6.38051        -0.088291     -0.082261      0.217128
Ti       9.79117      5.65998     10.55351        -0.464600      1.203581     -0.705116
Ti       9.79679      9.71955      2.14918        -0.436616     -0.339570      1.428912
Ti       9.79117      9.82221     14.64523        -0.519441      0.426825      0.375929
Ti       9.75910      9.80437      6.33665        -0.362121     -0.217456      0.578082
Ti       9.76303      9.76690     10.43399        -0.483564      0.199240     -0.596276
O       1.87040      1.95857      0.37412         0.167599     -0.243687      0.712259
O       1.87768      1.88635     12.84958         0.128448     -0.003588     -0.049317
O       2.05089     13.56706      0.42312        -0.461377      0.250430     -0.763015
O       1.89052     13.58098     12.67142         0.363861      0.050337      1.029306
O      13.75600      2.07537      0.37732        -0.667707     -0.645960      1.261735
O      13.75183      1.94052     12.93578        -0.671043      0.241429     -0.182943
O      13.49384     13.63465      0.44822         0.275692      0.160323      0.421466
O      13.62607     13.64847     12.76954        -0.115703      0.085429      0.591135
O       1.85826      2.04309      4.55293         0.257897     -0.505660     -0.052419
O       1.91628     13.64072      4.50592        -0.171753     -0.202063      0.440341
O      13.61274      1.73932      4.58515         0.169411      0.898317     -1.030585
O      13.77076     13.58917      4.50750        -0.112928      0.093765      0.143015
O       1.90376      1.92958      8.78767         0.187029     -0.016660     -0.690482
O       1.96799     13.60389      8.63499         0.130048      0.159471     -0.598690
O      13.50871      1.95331      8.71717         0.441613     -0.179170      0.076869
O      13.67758     13.68515      8.70756        -0.391714     -0.122278     -0.686132
O       1.87770      5.98427      0.46538         0.240170     -0.226642     -0.234208
O       2.04808      5.86611     12.79121         0.010415      0.224529      0.783657
O      13.69557      5.65715      0.34856        -0.046994      0.749702     -0.176411
O      13.46887      5.75888     12.88216         0.065665      0.064619      0.660600
O       1.80147      5.79151      4.60879         0.349380      0.384602      0.114206
O      13.57718      5.80824      4.53486        -0.341863      0.144103      0.710734
O       1.72020      5.61562      8.74968         0.671756      0.402582      0.434616
O      13.62491      6.03361      8.70241        -0.054352     -0.667888      0.947042
O       1.86144      9.71289      0.37913         0.306009     -0.201567      0.709813
O       1.78284      9.62562     12.84466         0.462548      0.141210     -0.157059
O      13.45488      9.63703      0.54015         0.530780      0.236902     -1.232837
O      13.56406      9.63300     12.85942         0.322516      0.480281      0.434234
O       1.92726      9.61238      4.60570        -0.182331      0.241356      0.268185
O      13.58625      9.81361      4.49343         0.309295     -0.202267     -0.024857
O       1.97949      9.73282      8.61737        -0.033122      0.099832     -0.822220
O      13.60611      9.73326      8.88272        -0.256844      0.094255     -0.594308
O       5.85729      1.95912      0.39861        -0.135139     -0.066842      0.396758
O       5.84854      1.88277     12.93644        -0.134389      0.049604     -0.018148
O       5.78557     13.41504      0.39187         0.101457      0.470477      0.963897
O       5.80701     13.49310     12.89733         0.045926      0.443719     -0.803612
O       5.73739      2.03659      4.51091         0.135316     -0.410773      0.138148
O       5.76321     13.71325      4.48819         0.264269     -0.101429     -0.691916
O       5.72860      2.00595      8.69254        -0.022199     -0.455782      0.712838
O       5.70341     13.52866      8.69453         0.352589      0.154039     -0.145331
O       5.89780      5.84690      0.36249        -0.597776     -0.160395      0.748766
O       5.81803      5.86632     12.89436        -0.223919     -0.232661     -0.200244
O       5.73675      5.84948      4.48806        -0.024307     -0.202389     -0.100286
O       5.92300      5.98734      8.69439        -0.540465     -0.583702     -0.174432
O       5.85035      9.69495      0.45781         0.204799      0.248477      0.617450
O       5.88412      9.62912     12.85254        -0.294585      0.391199     -0.156484
O       5.78527      9.65990      4.51685        -0.063875     -0.012896     -0.493355
O       5.81030      9.53483      8.51226         0.236250      0.629503      0.831526
O       9.76768      1.99158      0.42960        -0.218638     -0.505221      0.321314
O       9.69568      2.09753     12.92126         0.132910     -0.395574     -0.675213
O       9.82544     13.66191      0.40010         0.004872     -0.046524      0.227083
O       9.59836     13.61082     12.88687         0.346881     -0.065735      0.045104
O       9.56343      1.95174      4.55449         0.395327     -0.003150      0.383407
O       9.76854     13.50959      4.52369        -0.383487      0.549816      0.856045
O       9.65577      1.82980      8.74468         0.198922     -0.251236      0.720883
O       9.72695     13.67537      8.66927        -0.077064      0.297990      0.288912
O       9.66179      5.82732      0.47303         0.151086      0.157212     -0.584471
O       9.56436      5.70170     12.88472         0.532223      0.099230      0.307068
O       9.79853      5.63960      4.58399        -0.147230      0.363753      0.121464
O       9.61855      5.70506      8.72924         0.325577      0.594167      0.315534
O       9.67359      9.61673      0.36744         0.127599      0.097374      0.075780
O       9.84174      9.86708     12.89007        -0.354066     -0.165764     -0.586666
O       9.75540      9.76665      4.49668        -0.182141      0.060156      0.709767
O       9.79787      9.74990      8.60358        -0.254522     -0.474331      0.286702
O       3.82943      2.00956      2.48662         0.816488     -0.298850      0.107017
O       3.81085      1.90585     15.07232         1.042344      0.315182     -0.320448
O       3.85946     13.62029      2.46768         0.785463     -0.143895      0.567354
O       3.86114     13.71889     14.89814        -0.186126     -0.515062     -0.087519
O      15.57316      1.83044      2.52773        -0.625174      0.283667     -0.055678
O      15.56497      1.95466     14.95890        -0.073362     -0.225164      0.234682
O      15.59163     13.73580      2.36734        -0.385307      0.176841      0.376243
O      15.55811     13.61966     14.92587         0.292325      0.154272      0.300576
O       3.77378      1.85137      6.63000         1.196349      0.262578      0.324278
O       3.82822     13.53294      6.49237         0.238373      0.077563      0.425822
O      15.53311      2.03743      6.73988         0.845440     -0.824464     -0.319231
O      15.58683     13.59612      6.66784         0.620425      0.140933      0.144332
O       3.84204      1.94598     10.79285         0.079069     -0.295115      0.165273
O       3.87442     13.61036     10.79164         0.182833     -0.339227     -0.215784
O      15.60229      1.78349     10.84787        -0.568575      0.795288     -0.505560
O      15.54781     13.47031     10.57944         1.365713      0.167477      0.296816
O       3.86667      5.76648      2.43161        -0.297218      0.259375      0.142903
O       3.86968      5.68162     15.08969         0.146119      0.853997     -0.427454
O      15.56985      5.79950      2.48779        -0.412169      0.218975     -0.082950
O      15.56621      5.80613     14.85510        -0.241918      0.684452      0.236386
O       3.87641      5.86542      6.60064        -0.443819      0.092726      0.091930
O      15.53988      5.89679      6.68234        -0.276712     -0.020252     -0.151660
O       3.85952      5.66228     10.79947        -0.086545      0.825655     -0.528770
O      15.57274      5.85826     10.96320        -0.157602     -0.151521     -0.243269
O       3.83610      9.81164      2.47965         0.177086     -0.027217      0.324125
O       3.83863      9.67121     14.94436         0.361588      0.275892     -0.232796
O      15.59988      9.62880      2.49965        -0.076740      0.002548      0.298752
O      15.57771      9.71010     15.06273        -0.172576     -0.004619     -0.379363
O       3.86843      9.64118      6.52042         0.388987      0.120340      0.294216
O      15.50652      9.69704      6.71231         0.648027      0.075575     -0.122856
O       3.89243      9.67096     10.74619         0.334232      0.100077      0.094958
O      15.58021      9.73428     10.70918        -0.099413     -0.017915      0.455572
O       7.71785      1.84333      2.48731         0.646418      0.177253      0.053903
O       7.84137      1.95335     15.01595        -0.595105     -0.242594      0.107885
O       7.80298     13.53750      2.50170         0.145380      0.493254     -0.026997
O       7.71964     13.63477     15.00833         0.574109      0.058693     -0.005757
O       7.72065      2.00899      6.61459        -0.425345     -0.306656      0.074674
O       7.77751     13.56941      6.62170        -0.482695      0.351366     -0.045764
O       7.72434      1.96283     10.90301        -0.100508     -0.267051     -0.275759
O       7.75307     13.65786     10.78082        -0.672052      0.089720     -0.125696
O       7.73708      5.90120      2.46730        -0.253348      0.047385      0.388103
O       7.74903      5.75296     15.07832         0.577260      0.229438     -0.513047
O       7.68555      5.69643      6.58154         0.764682      0.217991      0.115661
O       7.71491      5.74950     10.75169        -0.134728      0.159845      0.422518
O       7.79449      9.60590      2.61160        -0.155768      0.316707     -0.532439
O       7.77964      9.80018     14.90653        -0.522674     -0.266294      0.283428
O       7.80083      9.72014      6.48607        -0.155718      0.233626      0.263876
O       7.80564      9.66461     10.68993        -0.809353     -0.127401      0.088634
O      11.65173      1.92084      2.63462        -0.553427      0.216057     -0.528622
O      11.68799      1.87229     15.03024         0.052034     -0.197626     -0.254136
O      11.68578     13.47789      2.61461        -0.633583      0.354409     -0.279101
O      11.71546     13.53602     14.90136        -0.630755      0.550046     -0.173930
O      11.63685      2.12803      6.67122        -0.096784     -1.103512     -0.213850
O      11.73850     13.64347      6.63844        -0.306515     -0.024695      0.073755
O      11.71589      1.94197     10.85059        -0.145057      0.034195      0.093143
O      11.56406     13.74667     10.80222         1.376053     -0.384915      0.139565
O      11.64461      5.70363      2.42308         0.380269      0.249242      0.119499
O      11.63244      5.95106     15.10577        -0.005723     -0.124132     -0.433137
O      11.62176      5.76323      6.71851         0.435342      0.236639     -0.457287
O      11.69217      5.59754     10.83257        -0.034649      0.482319     -0.148471
O      11.68027      9.63062      2.57552        -0.679330      0.289421     -0.206578
O      11.66591      9.72676     14.93769         0.105661     -0.043350      0.246583
O      11.70681      9.76935      6.55825        -0.704034      0.326054      0.091081
O      11.58795      9.68475     10.80298         1.002099     -0.154795      0.392983
O       1.78350      3.92337      2.51008         0.587864     -0.570139     -0.085061
O       1.79506      3.95264     14.81590         0.582235     -0.691590      0.304696
O       2.01938     15.58540      2.46215        -0.115037      0.544052      0.120265
O       1.89588     15.54878     14.85639        -0.037190      0.197320      0.380875
O      13.54249      3.87333      2.64387         0.467367     -0.581996     -0.468004
O      13.51827      3.90241     15.02738         0.049860      0.149762     -0.484232
O      13.45143     15.57893      2.60995         0.411352      0.078326     -0.521652
O      13.64084     15.60059     14.94349        -0.041015     -0.505808      0.153892
O       1.91805      3.89143      6.65263        -0.056080     -0.201881      0.256561
O       1.85209     15.58696      6.64247         0.234801     -0.220307     -0.043887
O      13.65789      3.90686      6.62104        -0.198436      0.679547      0.011584
O      13.65199     15.57911      6.58823         0.060342     -0.024467      0.472103
O       1.84104      3.80766     10.84556         0.175443      0.078615      0.103476
O       1.87323     15.48720     10.78479         0.354843      0.738726     -0.329659
O      13.77047      3.89512     10.76029        -0.287655     -0.722527      0.143838
O      13.62027     15.59666     10.90537         0.345643     -0.114660     -0.667844
O       1.91428      7.79343      2.62505         0.482144     -0.317221     -0.246791
O       1.99881      7.81368     15.00375        -0.453834     -0.849993     -0.174204
O      13.61407      7.70169      2.50993        -0.211329     -0.252616     -0.148830
O      13.67287      7.84760     14.94489        -0.171305     -1.262528      0.189525
O       1.88397      7.80567      6.70823         0.124682     -1.400250     -0.104115
O      13.53252      7.88551      6.66362         0.073990     -1.104457     -0.282769
O       1.84399      7.74841     10.62064         0.501802     -0.079182      0.435347
O      13.62205      7.76191     10.91830        -0.207525     -0.057041     -0.106122
O       1.79552     11.69814      2.52987         0.403900     -0.663516      0.111513
O       1.89903     11.68612     14.78281         0.176431      0.107960      0.320884
O      13.77975     11.66091      2.46069        -0.210645     -0.073017      0.158173
O      13.66566     11.68235     14.98864        -0.109290     -0.052251      0.046667
O       1.90478     11.61537      6.65356        -0.071521      0.388260     -0.104945
O      13.72956     11.71097      6.68314        -0.508223     -0.163516      0.212563
O       1.93068     11.60022     10.70136         0.229490      0.394396      0.146714
O      13.46570     11.71425     10.79023         0.084544      0.416625     -0.054166
O       5.74839      3.93924      2.52127         0.434328     -0.418648     -0.335927
O       5.88573      3.85347     14.98844        -0.468003      0.027656      0.046948
O       5.85014     15.58361      2.43830        -0.401622     -0.253312      0.217886
O       5.76068     15.55594     15.02647         0.414950      0.563549     -0.102818
O       5.67278      3.85390      6.65667         0.019822     -0.135830     -0.133018
O       5.75279     15.55361      6.59509        -0.001333      0.411790      0.247774
O       5.74970      3.87989     10.80088         0.296210     -0.148769     -0.051595
O       5.77733     15.59815     10.71541        -0.049894     -0.573783      0.258343
O       5.67916      7.83512      2.57515         0.241865     -0.654315      0.033153
O       5.72414      7.76901     14.93588         0.348725     -0.344184      0.137075
O       5.97587      7.75798      6.53722        -0.678368     -0.216177      0.020326
O       5.77337      7.79108     10.79394         0.017715     -0.711346     -0.092856
O       5.89496     11.70378      2.67030        -0.329356     -0.647238     -0.274502
O       5.74902     11.66583     14.99965         0.325686     -0.521735     -0.448848
O       5.82529     11.67946      6.49026        -0.189982     -0.673357      0.197259
O       5.87189     11.58723     10.76065        -0.284244      0.195763     -0.134347
O       9.52297      3.88204      2.54665         0.454772     -0.615880     -0.420606
O       9.92754      3.87708     15.09755        -0.819512      0.520821     -0.375164
O       9.73427     15.52032      2.40054        -0.003752      0.374089      0.431354
O       9.66571     15.58142     15.07356         0.406744     -0.141806     -0.278979
O       9.66984      3.85618      6.81565        -0.218104      0.341065     -0.614242
O       9.71110     15.55669      6.68760         0.002205      0.512657     -0.244747
O       9.69793      3.85448     10.75201        -0.143814     -1.124941      0.390253
O       9.67995      0.00277     10.92194        -0.095398      0.188968     -0.200006
O       9.70614      7.72740      2.53784         0.380446      0.190508     -0.076979
O       9.62657      7.83482     14.90247         0.346946     -0.557143      0.150089
O       9.73269      7.74499      6.61906        -0.304705     -0.008188     -0.067704
O       9.73231      7.71688     10.92945         0.265555     -0.089316     -0.314055
O       9.66608     11.59103      2.40887         0.134411     -0.022479      0.111248
O       9.62661     11.71724     15.14249         0.476314     -0.100634     -0.650812
O       9.66879     11.69904      6.56734         0.153504     -0.435883      0.013012
O       9.73106     11.64648     10.71615        -0.012525      0.614555      0.404770
