  # total energy = -7879.46748409 
CRSYTAL
PRIMVEC
    15.6080000000000005    0.0000000000000000    0.0000000000000000
     0.0000000000000000   15.6080000000000005    0.0000000000000000
     0.0000000000000000    0.0000000000000000   16.6239999999999988
PRESSURE
0.155151 -0.356695 -0.355919 0.010932 -0.283051 -0.052682
PRIMCOORD
320 1
Pb       4.01054      4.04538      4.23850        -0.303623     -0.033379     -0.224982
Pb       3.96612      4.01659     16.48596        -0.382982     -0.094797      0.563003
Pb       3.91539      0.11014      4.01647        -0.054305     -0.807047      0.288928
Pb       3.83891      0.03857     16.44386         0.417153     -0.882839      1.483963
Pb       0.13163      3.84651      4.19945        -0.510431      0.272140     -0.533836
Pb      15.58711      3.76636     16.61402        -0.195746      0.851724      0.626233
Pb      15.42202      0.03548      4.10823         0.201081      0.142230     -0.118313
Pb      15.49956      0.02612     16.56378         0.245778     -0.058808      0.625879
Pb       3.79947      3.80602      8.23485        -0.056947      0.853068      0.036100
Pb       3.92352     15.52377      8.06732        -0.285195      0.497888      1.011059
Pb      15.53890      3.87638      8.37379        -0.163789     -0.242494     -0.423251
Pb      15.59520     15.54206      8.23572        -0.732498      0.751244      0.233328
Pb       3.74777      3.87627     12.59463         0.269522      0.401193     -0.503125
Pb       3.90776     15.51764     12.53631        -0.176911      0.451126     -0.576607
Pb       0.00586      4.00522     12.62385        -0.343763     -0.508728     -0.127104
Pb       0.17287     15.55263     12.45433        -0.700807      0.339038      0.217202
Pb       3.85220      7.88295      4.04620        -0.125709      0.010503      0.830404
Pb       3.98668      7.72157     16.59560        -0.154696      0.688810     -0.338641
Pb       0.10586      7.82311      4.19295        -0.520073     -0.576574     -0.180712
Pb      15.50683      7.74554     16.59650         0.042369     -0.163834     -0.260654
Pb       3.80175      7.72638      8.31513         0.016971      0.228822     -0.273402
Pb      15.35437      7.67791      8.50063         0.313902      0.160026     -0.497954
Pb       3.99748      7.80672     12.33190        -0.171195     -0.268173      0.964351
Pb      15.44404      7.77418     12.51929         0.343675     -0.091696      0.363782
Pb       3.80080     11.69064      4.02404         0.811049      0.030794      0.347836
Pb       3.94927     11.63832     16.59301         0.035987     -0.110779     -0.074971
Pb      15.56803     11.66100      4.11056        -0.114386      0.235315      0.150623
Pb      15.49695     11.73809     16.54286         0.383050      0.586628     -0.092714
Pb       3.85695     11.86330      8.25695         0.553915     -0.606315     -0.648917
Pb       0.13857     11.64327      8.13608        -0.845414      0.120720      1.207590
Pb       4.00426     11.53806     12.22893        -0.174286      0.004309      0.947596
Pb       0.14732     11.64734     12.42719         0.074844      0.243650      0.363169
Pb       7.82639      3.68388      4.12965        -0.320183      1.056502      0.380388
Pb       7.97154      4.00504     16.57125        -0.365985     -0.345614      0.045120
Pb       7.84592     15.47067      4.14338        -0.428228     -0.103739     -0.080940
Pb       7.83868      0.13882     16.54469        -0.536708     -0.308522      0.233735
Pb       7.60720      3.78874      8.50702         0.522737      0.390644     -0.769286
Pb       7.76121      0.05094      8.16585         0.064866     -0.435360      0.698946
Pb       7.79605      3.55989     12.55037         0.203601      1.173618      0.055773
Pb       7.72476     15.43328     12.44036         0.128236      0.536040     -0.018922
Pb       7.96933      7.85147      4.20822        -0.713071     -0.473499     -0.268981
Pb       7.63545      7.77503     16.60727         0.753949      0.565506      0.117975
Pb       7.77864      7.82261      8.12982        -0.045581     -0.427438      0.404225
Pb       7.80943      7.65491     12.38590         0.243513     -0.343165     -0.084973
Pb       7.87746     11.57010      4.14937        -0.189667      0.897645     -0.524226
Pb       7.76270     11.88347     16.52394         0.016391     -0.732541      0.603217
Pb       7.76973     11.68776      8.14316        -0.389052      0.331129      0.911773
Pb       7.84525     11.59173     12.33344        -0.180041     -0.061434      0.363555
Pb      11.76476      3.66921      4.23971        -0.105218      0.634283     -0.079693
Pb      11.69174      4.10233      0.31844         0.020283     -0.065290     -1.102681
Pb      11.38339     15.43150      4.11155         0.804485      0.010791     -0.001171
Pb      11.71472     15.57903     16.51128        -0.088632     -0.065391      0.865479
Pb      11.66594      4.15103      8.42437         0.010543     -0.858951     -0.652975
Pb      11.74559      0.23933      8.42720         0.548388     -0.298873     -0.425584
Pb      11.83525      3.77089     12.51240        -0.812219      0.456673      0.009589
Pb      11.54673     15.54118     12.37976         0.511446      0.059596     -0.124054
Pb      11.57742      7.72348      4.15936         0.604477     -0.184139      0.010969
Pb      11.70821      7.88068      0.04138        -0.459182     -0.247208     -0.303873
Pb      11.64142      7.80245      8.37330         0.087951     -0.144341     -0.592070
Pb      11.48759      8.03108     12.50193         0.153930     -0.846183     -0.099849
Pb      11.86822     11.31443      4.15338        -0.730581      1.224583      0.558867
Pb      11.68324     11.62108     16.60944        -0.256401      0.669404      0.072850
Pb      11.80661     11.91036      8.40223         0.143588     -0.188604      0.296056
Pb      11.84770     11.78973     12.47117        -0.560529      0.152541     -0.207762
Ti       1.96608      1.92364      2.30102        -1.383385     -0.186256     -0.927127
Ti       1.89088      1.89260     14.82934        -0.858770      1.068217     -0.815582
Ti       1.83130     13.58156      2.20694         0.699435      1.520966     -0.591476
Ti       1.96704     13.60694     14.64317        -0.497677     -0.344707      0.443035
Ti      13.61486      1.92924      2.17918         0.848855     -0.240614      0.309092
Ti      13.50589      1.98843     14.69503         1.077339      0.674936      1.453156
Ti      13.57957     13.58709      2.23562        -0.904209      0.982069     -0.954332
Ti      13.58471     13.75656     14.62142         0.770842     -0.712493      0.667270
Ti       1.85471      2.03321      6.43963        -0.572632     -0.364452     -0.166470
Ti       1.80114     13.72632      6.25660         0.996770      0.517274     -0.198100
Ti      13.58102      1.96572      6.27838         0.547179     -0.732354      1.447586
Ti      13.63701     13.61390      6.31282        -1.060934      1.632175     -0.029181
Ti       1.97061      2.00526     10.53188        -0.581083      0.014953      0.055577
Ti       2.02917     13.72096     10.50493        -0.511195      0.103989      0.934548
Ti      13.74438      1.86360     10.62044         0.054163      0.286845     -0.631196
Ti      13.69154     13.62265     10.53037        -0.336658      0.932998     -1.180380
Ti       1.88896      5.81350      2.10288         0.134786      0.063262      0.651827
Ti       1.88262      5.88591     14.74338         0.189979     -0.680260      0.795304
Ti      13.66504      5.89254      2.22818        -0.001068     -0.887096      0.337794
Ti      13.56719      5.91425     14.76467         0.163981     -0.650689      0.048774
Ti       1.85521      5.98593      6.33109         1.013328     -0.876026      0.130122
Ti      13.62468      5.79459      6.27392        -0.475300      0.306921     -0.192839
Ti       1.86624      5.93847     10.66878         0.767237     -0.630498     -1.237337
Ti      13.60024      5.81485     10.61626        -0.394000     -0.429441      1.368615
Ti       1.86864      9.72908      2.16930         0.819605     -0.272905     -0.567864
Ti       1.87018      9.70051     14.74133         1.057472      0.394493      0.004687
Ti      13.69198      9.70045      2.13443        -0.460117     -0.160889     -0.460944
Ti      13.62739      9.88351     14.63818        -0.165023     -1.164253     -0.168324
Ti       1.80947      9.74492      6.34918         2.926724     -0.638788     -0.085311
Ti      13.57323      9.76569      6.53394         0.186999     -1.517109     -0.120972
Ti       1.84318      9.69736     10.56253         1.060129     -0.542846     -0.801734
Ti      13.61935      9.72084     10.64443        -0.229842      0.320923     -1.807029
Ti       5.82962      1.94677      2.18209         0.081522      0.389588      1.226721
Ti       5.75942      1.96042     14.64628         1.475341     -0.035103      0.225599
Ti       5.81500     13.64432      2.13622         0.344760      0.115115     -0.489355
Ti       5.81785     13.67841     14.55318         0.242033     -0.562674      1.368087
Ti       5.82462      1.94776      6.31752        -0.158514     -0.474872      0.120156
Ti       5.83161     13.62239      6.32577         0.514053      0.358018     -0.082187
Ti       5.74711      1.89777     10.51277        -0.196596     -0.360490      0.682809
Ti       5.86596     13.58946     10.49548        -0.302444      0.259649     -0.585192
Ti       5.78733      5.89561      2.32051         0.929164     -1.270175      0.048573
Ti       5.89437      5.82943     14.67765        -0.804978      0.430797     -1.959141
Ti       5.88534      5.83639      6.35974        -0.799460      0.088800     -0.066582
Ti       5.79869      5.74962     10.55379         0.605902     -0.032247     -0.190551
Ti       5.86410      9.69730      2.30753        -0.248146      1.028094     -1.516195
Ti       5.95547      9.78618     14.60729        -1.263967     -0.352406      1.293638
Ti       5.83343      9.73372      6.35197        -1.769504     -0.100259     -0.073909
Ti       5.92452      9.64850     10.37879        -0.787740     -0.255871     -0.516744
Ti       9.77470      2.02964      2.23231        -0.253207     -1.381975     -1.730018
Ti       9.72749      1.91320     14.73339         0.034189      2.022477     -0.370880
Ti       9.65944     13.68451      2.06872         0.813433     -0.619679      0.070990
Ti       9.73233     13.67807     14.64841        -0.060868     -0.616286      0.937013
Ti       9.72247      1.89840      6.44515         0.841068      0.875081      0.453809
Ti       9.78943     13.60111      6.48624        -0.509239      0.892821     -1.446801
Ti       9.69782      1.90416     10.53465         0.212382      0.382138      0.045866
Ti       9.67272     13.61222     10.50833         1.050346      0.241141     -1.157118
Ti       9.71408      5.82118      2.31425        -0.160374      0.140194     -1.120376
Ti       9.74206      5.92192     14.66250         0.025697     -0.900040     -1.118025
Ti       9.70968      5.78188      6.33805         0.442663     -1.002932      1.081997
Ti       9.78450      5.74459     10.55829        -0.713287      0.041832      1.282347
Ti       9.71481      9.74839      2.21940         0.183362      0.289355     -2.823309
Ti       9.76928      9.78214     14.66968        -0.829808     -0.725266      0.319883
Ti       9.78074      9.79682      6.38742        -0.083487     -1.036300     -0.101626
Ti       9.71577      9.77361     10.40057         0.396529     -0.716674      0.254851
O       1.87630      1.79892      0.52939         0.236546      0.541855     -1.028486
O       1.90926      1.89866     13.02791        -0.033070     -0.055271      0.398794
O       2.01309     13.55836      0.43942        -0.190608      0.094278      0.502045
O       1.92531     13.70493     12.84629         0.097535     -0.130424     -0.033310
O      13.68791      1.75427      0.40381        -0.566892      0.323068     -0.105283
O      13.85839      2.08142     12.99225        -0.635689     -0.379547     -1.206714
O      13.45842     13.37000      0.42234         0.741239      0.557320      0.359457
O      13.53684     13.71986     12.87740        -0.119132     -0.499479     -1.048036
O       1.73508      2.07637      4.67531         0.541121     -0.173046     -0.722956
O       1.80593     13.76901      4.50656        -0.026170     -0.635697      0.042889
O      13.60155      2.01036      4.51955         0.149584     -0.204723     -0.563887
O      13.75208     13.59550      4.50467        -0.529709     -0.481436      0.443204
O       1.85397      2.07027      8.75674         0.153587     -0.270471     -0.302179
O       1.88599     13.78692      8.75858         0.195778     -0.772693     -0.231535
O      13.73837      1.90629      8.81222        -0.610319     -0.071540      0.597167
O      13.56290     13.77992      8.64940         0.027699     -0.695328      1.554180
O       2.01662      5.73048      0.32045        -0.125076      0.756915      0.511301
O       1.87260      5.80601     12.99658        -0.217344     -0.225192     -1.586585
O      13.58569      5.86153      0.43470         0.306146      0.327920      0.038253
O      13.61229      5.80259     12.99386         0.259438      0.121664     -0.425084
O       1.90129      5.97410      4.52475        -0.145865     -0.143312      1.082981
O      13.61435      5.88088      4.48775        -0.050397     -0.102508      0.023820
O       1.90371      5.98557      8.84214        -0.441805      0.011233      0.631310
O      13.58257      5.80601      8.86219         0.156970      0.050858     -1.120132
O       1.78199      9.84202      0.37717        -0.262852     -0.104023      0.660551
O       1.77209      9.85481     12.96702         0.343533     -0.306764     -0.125318
O      13.65942      9.80860      0.29371        -0.153671     -0.085958      1.326003
O      13.65579      9.78337     12.76468        -0.334171      0.119841      0.532561
O       2.01198      9.75478      4.55731        -0.508215     -0.120144      0.146963
O      13.50603      9.72690      4.74578         0.221821      0.044020     -0.433455
O       1.75961      9.51675      8.78230         0.352066      0.664965     -0.145768
O      13.61995      9.75504      8.79196         0.318909     -0.573061     -0.110158
O       5.87616      2.05446      0.47577        -0.297236     -0.272630     -1.603518
O       5.84206      1.88485     12.88392        -0.383707      0.068112     -0.102668
O       5.77631     13.68125      0.32041         0.206684     -0.156349      0.923509
O       5.90325     13.51115     12.79713        -0.221589      0.247549     -0.211290
O       5.84363      1.78610      4.55450        -0.219644      0.668156      0.513823
O       6.00626     13.70956      4.57748         0.040532     -0.238479     -0.137177
O       5.67783      1.86425      8.73620         0.635351      0.423692     -0.102710
O       5.74786     13.50985      8.70488         0.031613      0.380171      0.484539
O       5.79647      5.76364      0.51769        -0.050373      0.622533     -0.168362
O       5.65027      5.84363     12.85870         0.965537      0.143795      0.464894
O       5.84397      5.86770      4.58939        -0.245742     -0.238437     -0.226383
O       5.95090      5.67740      8.72715        -0.466659     -0.118645      0.710900
O       5.76349      9.56824      0.50796         0.386309      0.300297      0.318309
O       5.83938      9.66281     12.84169         0.276166      0.149685      0.077196
O       5.78689      9.74289      4.52579         0.322537      0.108213      0.094233
O       6.03143      9.74726      8.56762        -0.236996     -0.244045      1.518397
O       9.73956      1.90361      0.35480        -0.185771      0.272360      1.137320
O       9.58546      2.05524     12.94664         0.286581     -0.933412     -0.029053
O       9.66029     13.66886      0.27987        -0.115852      0.224428      0.020574
O       9.75218     13.58957     12.88397        -0.200660     -0.043412     -0.577258
O       9.88390      1.95098      4.68374        -0.383319      0.087504     -1.290673
O       9.64258     13.72141      4.64014         0.054893     -0.406931      0.256678
O       9.70974      1.81313      8.73896         0.159536      0.431848     -0.175963
O       9.80033     13.51331      8.69354         0.020051      0.369995      0.831470
O       9.61556      5.74603      0.48486         0.443806      0.156598     -0.027091
O       9.61176      5.74964     12.86627         0.632085      0.779992      0.682465
O       9.88427      5.64257      4.61432        -0.211699      0.815040     -1.707424
O       9.78411      5.73655      8.77100         0.065166      0.143633     -0.160792
O       9.65507      9.67287      0.33228         0.791862     -0.091834      1.828118
O       9.76710      9.68983     12.83031        -0.145233      0.373467      0.389780
O       9.71670      9.51757      4.50659         0.375858      1.240649      0.681628
O       9.58958      9.70030      8.59614         0.381823     -0.204929      0.592810
O       3.78382      1.99279      2.57963         1.380843      0.124864      0.120757
O       3.85758      1.91681     15.01622         0.171692      0.396901     -0.134123
O       4.02036     13.70843      2.60168        -1.610160     -0.373891     -0.024484
O       3.91947     13.69806     14.89401        -0.613648     -0.203804     -0.244379
O      15.52663      1.80248      2.51844         0.092800      0.672190      0.338519
O      15.59315      2.08518     15.14412         0.185137     -1.673435     -0.665297
O      15.54590     13.52638      2.38216         0.252404     -0.077435      0.087600
O      15.50130     13.66057     14.92248         0.142930     -0.365901      0.206182
O       3.81600      1.92409      6.71240         0.163158     -0.017213     -0.484033
O       3.88330     13.73104      6.59242        -0.850324     -0.690787     -0.100141
O      15.51168      1.83053      6.68364         0.679657      0.595539      0.200753
O      15.47314     13.69666      6.70370         1.806662     -0.636017     -0.203842
O       3.83280      1.82024     10.89787         0.661806      0.160935      0.055282
O       3.91198     13.54081     10.78166        -0.413737      0.192343      0.149996
O      15.59319      1.83918     10.81724         0.765808      0.261063      0.347886
O      15.56948     13.61213     10.86189         0.653575     -0.079812     -0.316004
O       3.89686      5.95966      2.69925        -0.275804     -0.287706     -0.955271
O       3.84282      5.85999     14.89174         0.442537     -0.288826      0.805013
O       0.06452      5.87843      2.54716        -1.387505      0.444688     -0.390568
O      15.50177      5.80245     15.07713         0.567617      0.208046     -0.069332
O       3.81931      5.77881      6.69449         0.089653     -0.070496     -0.080505
O      15.49898      5.84396      6.63359         0.884038      0.457442      0.294230
O       3.80751      5.93990     10.89963         0.739051     -0.573282     -0.298181
O      15.56584      5.85554     10.92405        -0.026256      0.122529      0.148170
O       3.84406      9.82907      2.40900        -0.294320     -0.626059      0.399851
O       3.81467      9.71304     15.13862        -0.120241      0.343584     -0.672167
O      15.53655      9.73984      2.71678         0.168901      0.513807     -0.866037
O      15.46275      9.81697     14.94139         0.664026      0.132644      0.075696
O       3.96440      9.69758      6.74364        -0.603362      0.602790      0.076632
O       0.03797      9.62138      6.60376        -1.386388      0.338844      0.227810
O       3.92162      9.42826     10.63097         0.461289      1.662350      0.230420
O      15.60420      9.82011     10.74673        -1.145573     -0.047185      0.737707
O       7.76076      2.04498      2.55353         0.628998     -0.215590     -0.410776
O       7.66755      1.99717     14.96073         0.873526     -0.230549      0.240941
O       7.82759     13.72881      2.46785        -1.215659     -0.104473      0.059062
O       7.74362     13.62780     14.98717         0.758997      0.309135     -0.673319
O       7.79603      1.91119      6.65447        -0.839446      0.059333      0.136829
O       7.85211     13.72399      6.86068        -0.888388     -0.701163     -0.766580
O       7.73899      1.93156     10.78373        -0.294333      0.000201     -0.035736
O       7.75595     13.55287     10.80402         0.797886      0.016001      0.026931
O       7.86221      5.64745      2.62098        -0.736310      0.683002      0.087122
O       7.78983      5.85438     14.91288        -0.343754      0.204641      0.472471
O       7.76997      5.79588      6.59558         0.063791      0.221294      0.276841
O       7.80750      5.80605     10.80430        -0.550548     -0.335038     -0.017929
O       7.88458      9.70534      2.47138        -1.409401     -0.148287      0.805159
O       7.74299      9.76896     15.09061        -0.084849     -0.042350     -0.855699
O       7.75359      9.88567      6.53984         0.627876     -1.052424     -0.263071
O       7.81716      9.60799     10.83693         0.022014      0.213501     -0.275529
O      11.71180      1.94827      2.53603        -0.901365     -0.234507     -0.219983
O      11.65736      1.91961     14.93610        -0.328499     -0.534683     -0.246358
O      11.56740     13.82621      2.27076         0.293059     -0.830654      0.935639
O      11.66777     13.64575     15.01604        -0.832645      0.443028     -0.343193
O      11.73025      1.93860      6.68950        -0.799403      0.029180      0.342348
O      11.66982     13.52732      6.59494         0.653385     -0.198505      0.129116
O      11.59383      1.82816     10.92371         0.964371      0.060787     -0.148242
O      11.66124     13.73274     10.82526        -0.335039     -0.518087      0.099233
O      11.72121      5.87029      2.32323         0.207296     -0.085183      0.692202
O      11.64710      5.94327     15.05211        -0.037350      0.146522      0.270161
O      11.70278      5.72293      6.65284        -0.106592      0.315294      0.509766
O      11.72210      5.70514     10.89988        -0.267897      0.191292     -0.173769
O      11.69195      9.69155      2.58050         0.273745     -0.204577     -0.620222
O      11.63943      9.60093     14.96081         0.705540      0.258188     -0.196992
O      11.68234      9.78473      6.75718        -0.687130      0.061107     -0.103472
O      11.64141      9.71093     10.72579         0.013878      0.037599      0.252073
O       1.82284      3.99625      2.49592         0.539077     -1.156680      0.274696
O       1.86716      3.90628     15.08213         0.605980     -0.867622     -0.360537
O       1.90699      0.04249      2.57314         0.106323     -1.174176      0.164882
O       1.89754     15.49240     15.13901        -0.200312      1.227539     -0.709066
O      13.67342      3.83182      2.44062        -0.206411      0.808472     -0.154538
O      13.54560      3.84946     15.16551        -0.103563      0.583810     -0.230433
O      13.57960     15.47691      2.49433         0.421400      0.119592      0.070516
O      13.67175     15.60772     14.96511        -0.461221      0.274385      0.095042
O       1.80229      3.95972      6.73865         0.109620     -0.394749     -0.106829
O       1.88906     15.58380      6.68395        -0.128336     -0.010014     -0.161998
O      13.63503      3.85258      6.70383         0.285623      0.599936     -0.122850
O      13.61625     15.59478      6.57151        -0.252047     -0.606684      0.065737
O       1.97120      3.89411     10.88783        -0.183864      0.090907      0.337048
O       2.00688      0.06323     10.96260        -0.270612     -1.780177     -0.566693
O      13.70589      3.89541     10.99233        -0.062784     -0.575566     -0.435091
O      13.62883     15.57487     10.89301        -0.067633      0.037062      0.056867
O       1.82060      7.83472      2.43678         0.465622      0.430060      0.010910
O       1.87889      7.78483     14.92601        -0.583710      0.758164      0.488025
O      13.68983      7.84651      2.46935        -0.050928     -0.233638     -0.104296
O      13.70974      7.82431     15.04046        -0.348399      0.098232     -0.177248
O       2.08182      7.82242      6.66174        -0.825813     -0.014156     -0.355177
O      13.52524      7.71866      6.75305         0.245516      0.537458      0.313228
O       1.87575      7.81860     11.06693        -0.595334     -0.126446     -0.118784
O      13.64585      7.78495     10.85162         0.156762      0.226116     -0.018452
O       1.94909     11.70067      2.58094        -0.414028     -0.001310     -0.105526
O       1.80424     11.78967     14.98084         0.383966     -0.941885     -0.033253
O      13.54327     11.59234      2.60573         0.364005      0.204090     -0.147350
O      13.38394     11.71949     14.83383         0.577127     -0.536550      0.026625
O       1.89871     11.72786      6.61369         0.027832      0.033706      0.079957
O      13.72098     11.63049      6.75650         0.035095      0.776184     -0.182642
O       2.06194     11.59408     10.95395        -0.553766      0.904353     -1.041325
O      13.46551     11.70753     10.68710         0.426150      0.385685      0.576544
O       5.72193      3.92453      2.62157         0.090599     -0.076520      0.249664
O       5.92916      3.98806     14.96001        -1.030277     -1.273470      0.001891
O       5.81209      0.03824      2.48060         0.131315      0.007144     -0.173437
O       5.84889     15.60571     14.89150        -0.153272      0.272516     -0.073951
O       5.72666      3.82352      6.59313         0.464279     -0.038850      0.164928
O       5.83977     15.55469      6.74239         0.082316      0.726128     -0.344719
O       5.69438      3.74368     10.93447         0.180107      1.078152     -0.704655
O       5.88979     15.45041     10.97140        -0.513980      0.871246     -0.622179
O       5.95735      7.81384      2.61479        -0.203669     -0.701509     -0.086781
O       5.76270      7.78002     15.08219         0.573812      0.183833     -0.441747
O       5.80511      7.73956      6.65327         0.585522      0.391081      0.077531
O       5.85389      7.69655     10.72094         0.463517      0.225371      0.022234
O       5.81068     11.67270      2.43282         0.574525      0.172272      0.348360
O       5.86297     11.71731     14.98851        -0.479546     -0.616002     -0.320399
O       5.74744     11.76531      6.66614         0.364021     -0.776717     -0.156291
O       5.91124     11.61113     10.82795        -0.313239     -0.784727     -0.468378
O       9.84262      3.86542      2.57466        -0.001675     -0.304337     -0.083007
O       9.80218      3.90409     14.98074        -0.512204      0.066171      0.434889
O       9.63563      0.07502      2.47159         0.211390     -0.115193      0.304186
O       9.67946      0.01318     14.85978        -0.024349     -0.791619      0.297956
O       9.68371      3.90397      6.72938         0.100618     -0.909171      0.325864
O       9.74782     15.55697      6.59991         0.198212      0.431955      0.743470
O       9.81776      3.79897     10.98758        -0.504054      0.258397     -1.039104
O       9.64308     15.56002     10.81048        -0.112677     -0.515763      0.389172
O       9.77572      7.74826      2.44219        -0.243066     -0.103219      0.769120
O       9.60567      7.84411     14.87965         0.254913     -0.728347      0.248270
O       9.79962      7.74439      6.54594        -0.393380      0.549691      0.555397
O       9.88150      7.71758     10.79776        -0.620697      0.394345     -0.045559
O       9.59372     11.71875      2.39395         0.725283     -0.399360      0.359412
O       9.79816     11.62522     15.05457        -0.377653      1.177052     -0.650247
O       9.62893     11.61238      6.70892         0.697663      0.646827     -0.795794
O       9.70928     11.66476     10.80482         0.044638     -0.236614     -0.210090
