  # total energy = -7883.29596283 
CRSYTAL
PRIMVEC
    15.6080000000000005    0.0000000000000000    0.0000000000000000
     0.0000000000000000   15.6080000000000005    0.0000000000000000
     0.0000000000000000    0.0000000000000000   16.6239999999999988
PRESSURE
0.133763 0.054127 1.05736 0.012061 0.201488 -0.059244
PRIMCOORD
320 1
Pb       3.86529      3.80186      4.10066        -0.139102      0.121499      0.212923
Pb       3.90984      3.88443     16.56902        -0.004761      0.105122      0.133083
Pb       3.91025     15.53046      4.05153         0.034517     -0.012464      0.526512
Pb       3.94514     15.57462     16.52910         0.069729      0.268057      0.380652
Pb       0.02298      3.92280      4.08878         0.129121     -0.355538      0.392270
Pb       0.02332      3.84486     16.60507        -0.267204      0.023839      0.068086
Pb       0.00339     15.50308      4.10531        -0.110099      0.001413      0.544353
Pb      15.59669     15.60265     16.54021         0.121917     -0.139340      0.639160
Pb       3.93979      3.84766      8.19669        -0.438223      0.212005      0.321416
Pb       3.86523     15.45221      8.15364        -0.241500      0.965480      0.279316
Pb      15.53701      3.89596      8.26370         0.364643     -0.380088      0.342036
Pb      15.49832     15.51963      8.28193         0.415545      0.219805     -0.436187
Pb       3.82294      3.81189     12.45248         0.169367     -0.102041      0.019383
Pb       3.92654      0.04347     12.54826         0.054245      0.029006     -0.219845
Pb       0.03405      4.04837     12.55761        -0.515696     -0.100177     -0.164328
Pb       0.07647     15.59119     12.52323        -0.854186      0.259458     -0.618895
Pb       3.92408      7.80073      3.97019         0.071001      0.235459      0.824880
Pb       3.91607      7.80177     16.54238        -0.322051      0.038128      0.839440
Pb      15.44833      7.78849      4.08733         0.627664      0.243194      0.799684
Pb      15.59107      7.71977     16.53772        -0.277250      0.348092      0.299914
Pb       3.74607      7.76909      8.30285         0.828134     -0.247763     -0.147241
Pb      15.46829      7.69908      8.40300        -0.353281      0.634264     -0.005494
Pb       3.91498      7.73782     12.34518        -0.465649      0.109306      0.562971
Pb      15.53314      7.77033     12.41211         0.128248      0.341339      0.275870
Pb       3.87188     11.69752      4.06617         0.140703     -0.386369      0.264640
Pb       3.82900     11.74979      0.02768        -0.243901     -0.268306      0.235169
Pb      15.55292     11.62006      4.05646         0.025190      0.187238      0.253865
Pb      15.57536     11.63157     16.53388        -0.103750      0.347360      0.266417
Pb       3.88402     11.77304      8.38173        -0.251038     -0.997173     -0.087621
Pb       0.06772     11.72088      8.25242        -0.340718     -0.328184      0.130990
Pb       3.81758     11.63596     12.40530         0.336747      0.228915      0.299748
Pb      15.57862     11.78999     12.50815         0.005220     -0.430233     -0.465953
Pb       7.79738      3.84741      4.09582         0.073517     -0.182638      0.145559
Pb       7.82334      3.89716     16.55855        -0.250613      0.205664      0.840663
Pb       7.80600     15.60725      4.17386         0.031141     -0.271061     -0.005156
Pb       7.77598      0.03199     16.53684        -0.086570      0.224356      0.641079
Pb       7.84588      3.78377      8.28821         0.055184      1.031044      0.416508
Pb       7.76267      0.03077      8.13982         0.474609     -0.180704      0.575422
Pb       7.86084      3.80741     12.45728         0.103030     -0.051798      0.349332
Pb       7.74628     15.57537     12.32845        -0.115195     -0.113581      0.972413
Pb       7.91543      7.78731      4.15406        -0.762730      0.617512      0.199162
Pb       7.62412      7.63670      0.00012         0.270022      0.193080      0.439908
Pb       7.77831      7.72894      8.20000        -0.334001     -0.473016      0.352918
Pb       7.65545      7.86621     12.41879         0.508844     -0.046492      0.800296
Pb       7.80380     11.68050      4.10735         0.542524     -0.178845      0.329714
Pb       7.75003     11.79540     16.55498         0.451516     -0.371483      0.565359
Pb       7.93264     11.70337      8.34888        -0.280794     -0.115291      0.210265
Pb       7.79092     11.78311     12.41427        -0.446955     -0.365046      0.190833
Pb      11.73832      3.78764      4.11539        -0.072222      0.164845     -0.015278
Pb      11.65555      3.90266      0.10660         0.288068     -0.076868      0.193532
Pb      11.68558     15.49316      4.08296         0.399384      0.340031      0.610253
Pb      11.69666     15.59783     16.50239        -0.165506     -0.638311      0.730539
Pb      11.70388      3.94591      8.34032        -0.341318     -0.081453      0.247578
Pb      11.79555      0.06529      8.35477        -0.440821     -0.426893      0.167010
Pb      11.68313      3.89626     12.34894        -0.108382     -0.099828      0.686700
Pb      11.47434      0.09268     12.41391         1.286247     -0.281354      0.368427
Pb      11.71787      7.98617      4.25065         0.094095     -0.213391     -0.033668
Pb      11.75028      7.77941     16.58385        -0.362180      0.106654      0.135556
Pb      11.70782      7.67841      8.38054         0.132692      0.656065     -0.046643
Pb      11.66366      7.92242     12.44393         0.101908      0.022109      1.186372
Pb      11.85723     11.66961      4.11061        -0.367418     -0.025660     -0.075333
Pb      11.52897     11.60968     16.56955         0.431258      0.800557      0.235135
Pb      11.65144     11.78114      8.44355         0.701493     -0.090576     -0.208707
Pb      11.65330     11.65322     12.47078        -0.011327     -0.006598      0.420742
Ti       1.97056      1.81546      2.24373        -0.230459      0.384259     -0.007029
Ti       1.96068      1.91958     14.69018         0.118065      0.509000      0.639536
Ti       1.91296     13.58433      2.19563        -0.011231      0.030765     -0.847248
Ti       1.91916     13.67851     14.69876        -0.158075     -0.621972      1.746331
Ti      13.74574      1.88277      2.23205        -0.608227      0.374959      0.984023
Ti      13.65447      1.90779     14.71960         0.935501      1.061489     -1.291176
Ti      13.63665     13.70824      2.13221         0.267949     -1.276459      0.376324
Ti      13.64396     13.68276     14.64615        -0.315203     -1.023016      0.481066
Ti       1.91623      1.98902      6.34463        -0.148963     -0.788017      0.302697
Ti       1.98638     13.55823      6.31954        -1.097325      0.612921      0.486432
Ti      13.62854      1.98404      6.42210         0.091723     -1.118374     -1.401773
Ti      13.56704     13.64279      6.40014         0.510877     -0.234447     -0.118344
Ti       1.84539      1.95933     10.48195         0.397724     -0.184426     -1.067389
Ti       1.93805     13.69798     10.49377        -0.308251     -1.110173      0.530061
Ti      13.66194      1.97289     10.55946        -0.078854     -0.406966      1.629465
Ti      13.57975     13.68086     10.61855         0.016077      0.725768      0.168659
Ti       1.97490      5.81235      2.20477        -0.263852      0.289092     -0.799226
Ti       1.83563      5.87077     14.80870         0.211664      0.174074     -1.034496
Ti      13.68070      5.78207      2.25490        -0.718568      0.628288     -0.986839
Ti      13.53700      5.82193     14.76872         0.725399     -0.059509     -0.933269
Ti       1.76666      5.87619      6.42321         1.414239     -0.197457     -0.523479
Ti      13.53794      5.77906      6.40878         0.048215      1.841146     -0.062098
Ti       1.99531      5.83884     10.46575        -0.923919      0.192417      0.704944
Ti      13.54308      5.90974     10.70024         0.573000     -0.036750     -1.033849
Ti       1.92121      9.72543      2.16236         0.849482     -0.380806      0.351779
Ti       1.92286      9.76882     14.64373         0.206848     -0.267021      0.004743
Ti      13.71071      9.69796      2.13279        -0.565329      0.493948     -0.616665
Ti      13.57420      9.82704     14.71152        -0.052461     -0.522365     -0.728133
Ti       1.95091      9.68548      6.49572        -0.521849      0.146275     -0.093119
Ti      13.64854      9.78869      6.44581         0.069861     -0.420008      0.640110
Ti       1.93272      9.77219     10.55758        -1.409421      0.288925     -0.690628
Ti      13.58890      9.86015     10.59014         0.806975     -0.838153      0.492243
Ti       5.85979      1.87741      2.24580         0.230653      0.120893     -0.046221
Ti       5.92122      1.97382     14.69777        -0.942996     -1.302852     -0.045123
Ti       5.89080     13.64570      2.22794         0.125943     -0.188153      0.281281
Ti       5.81782     13.56780     14.73980         0.171095      1.366991     -0.796674
Ti       5.84738      1.96873      6.39089        -0.458961     -1.159217     -1.361309
Ti       5.84676     13.52436      6.38307         0.550133      0.753749     -0.680401
Ti       5.79795      1.82524     10.48872        -0.017902      1.616988      0.184608
Ti       5.77161     13.62904     10.46691        -0.064198     -0.711179      2.157267
Ti       5.87507      5.76526      2.37147        -0.224652      0.556197     -1.471464
Ti       5.75253      5.79130     14.63374        -0.006682      0.325071      1.193268
Ti       5.75697      5.76194      6.29919         0.011044      1.605982      0.501065
Ti       5.88090      5.68564     10.58021        -0.199700      0.628125     -1.290101
Ti       5.87054      9.79006      2.22275         0.387731     -0.815963      1.028632
Ti       5.77668      9.75739     14.74161         0.328294     -0.632157     -0.534943
Ti       5.90767      9.72434      6.49308        -0.869116     -1.190764     -1.747808
Ti       5.82911      9.69888     10.56755         0.077391      0.415031      0.561374
Ti       9.73577      1.91790      2.25383         0.865803      0.005380     -0.136321
Ti       9.85394      1.98592     14.78172        -1.043533      0.299503     -1.272298
Ti       9.78517     13.61076      2.29800        -0.047737     -0.006213      0.208592
Ti       9.72662     13.70409     14.65502         0.276208     -1.138061     -0.264575
Ti       9.77450      2.01964      6.38679         0.909112     -0.542930     -0.488161
Ti       9.74406     13.69340      6.44957         0.837877     -0.285395     -0.525383
Ti       9.70490      1.93362     10.56787         0.102696      0.109582     -0.271234
Ti       9.71059     13.60104     10.57755         0.982769      1.014097     -1.061602
Ti       9.75382      5.85833      2.29054         0.727127      0.111730     -0.481016
Ti       9.75213      5.83901     14.73486        -0.234492      0.550858     -0.516213
Ti       9.70799      5.88249      6.31351         0.193152     -0.262637      0.344156
Ti       9.65877      5.89775     10.66872         0.016079     -0.588942     -0.600139
Ti       9.74880      9.70565      2.18110         0.167280      0.499694      1.866433
Ti       9.62708      9.70945     14.71821         1.061259     -0.297363      0.408723
Ti       9.81549      9.78527      6.49788         0.380889     -0.418254     -0.782671
Ti       9.70739      9.68867     10.51790         0.771021      0.299926      0.244486
O       1.92098      1.94075      0.46942         0.185012     -0.172300      0.173394
O       1.92513      1.85469     12.92896         0.080828     -0.124141     -0.504267
O       2.02735     13.57542      0.38878        -0.175947      0.303583      0.956664
O       1.83320     13.76578     12.97243         0.257733     -0.241364     -1.037509
O      13.79842      1.99161      0.49922        -0.202301     -0.241555     -1.076200
O      13.71223      1.84585     12.92171        -0.180247      0.229106      1.208905
O      13.61823     13.59257      0.39842        -0.122057      0.475778     -0.481852
O      13.76049     13.65074     12.89630         0.038758      0.108539     -0.443686
O       2.00624      1.91402      4.54399        -0.168858     -0.097448      0.528460
O       2.02901     13.62678      4.56979        -0.397086     -0.166823     -0.542619
O      13.67468      1.89003      4.62763        -0.342363      0.405370      0.350641
O      13.58524     13.62088      4.61256         0.232644      0.026024      0.183650
O       1.83542      1.98015      8.65063         0.157459      0.234001      1.774213
O       2.05327     13.35428      8.72611        -0.102443      1.014254      0.267960
O      13.59238      2.00780      8.81213         0.255816     -0.053971     -0.924481
O      13.39055     13.66747      8.85783         0.704438      0.159631     -0.607060
O       1.79184      5.72465      0.36866         0.347556      0.200557      1.348009
O       1.75090      6.06601     13.01734         0.524643     -0.779573     -0.366824
O      13.84901      5.91715      0.43686        -0.759181     -0.375071      0.724508
O      13.57767      5.79473     12.95597        -0.275502      0.138191      0.122400
O       2.01108      5.87569      4.66406        -0.646501      0.003457     -0.426073
O      13.56118      5.86663      4.65916         0.058081     -0.073823     -0.690771
O       1.84542      5.82288      8.70358         0.217995     -0.492174      0.746418
O      13.47580      6.08740      8.85146         0.555034     -0.962169      0.450959
O       2.01882      9.79538      0.44440        -0.367756     -0.071420     -0.689679
O       2.08036      9.78590     12.84711        -0.377277     -0.379242      0.863680
O      13.85139      9.67030      0.32749        -0.633106      0.298549      0.896639
O      13.56043      9.76837     12.90133         0.137536      0.436486      0.714997
O       1.92143      9.57552      4.75508         0.210472      0.231855     -1.157731
O      13.61684      9.73774      4.65826         0.214965      0.365553     -0.662401
O       1.79710      9.83483      8.74051         0.532358      0.148566      0.745815
O      13.47900      9.71053      8.86146         0.420333     -0.023290     -1.123766
O       5.88962      1.86590      0.48023        -0.179134      0.404265     -0.363934
O       5.78806      1.75125     12.93838         0.198622      0.510387     -0.278635
O       5.82433     13.50646      0.46204         0.252471      0.403646     -0.290737
O       5.92644     13.65367     12.95396        -0.065026     -0.154288      0.352789
O       5.86529      1.86844      4.56413         0.143721      0.109824      1.172475
O       6.09072     13.65706      4.61670        -0.734254     -0.303771      0.619671
O       5.87068      1.95237      8.70063        -0.081838     -0.155513      0.250179
O       5.65562     13.54571      8.76433         0.193489      0.157823     -1.625193
O       5.94933      5.60096      0.54259        -0.206384      0.497793      0.184590
O       5.57648      5.86399     12.91065         0.737257     -0.086085     -0.134957
O       5.75496      5.83185      4.49835         0.005094     -0.503476      1.000705
O       5.81276      5.77683      8.77058         0.116191     -0.388113      1.182916
O       5.83367      9.73615      0.49673         0.320630      0.160101     -1.166194
O       5.83265      9.73739     12.93782        -0.202369     -0.251207      0.509258
O       5.90773      9.59935      4.66814        -0.029211      0.695404      0.897656
O       5.94617      9.60512      8.86660        -0.195791      0.303139     -1.559122
O       9.70812      1.88583      0.46651         0.568334     -0.127355     -0.562573
O       9.77194      2.03363     12.97275         0.009089     -0.178098      0.785136
O       9.89214     13.67725      0.56983        -0.307426      0.150551     -1.515139
O       9.57685     13.52292     12.88173         0.036445      0.410949     -0.138128
O       9.88999      2.02935      4.58931        -0.316371      0.152142      0.206547
O       9.83044     13.56954      4.66050        -0.216149      0.036827      0.040454
O       9.66903      1.85577      8.81363        -0.083715      0.169239     -0.910690
O       9.83539     13.77170      8.77055        -0.415899     -0.372572      0.693000
O       9.63042      6.13843      0.51361         0.110956     -0.789255      0.325323
O       9.75274      5.65564     12.97796         0.109338      0.353225     -0.365460
O       9.90858      5.80360      4.54899        -0.646375     -0.270829      0.428146
O       9.46695      5.85941      8.91312         0.548591      0.178484     -0.108170
O       9.68614      9.68490      0.47847         0.434445     -0.065535     -1.876487
O       9.85946      9.77592     13.00205        -0.567812      0.375483     -1.156051
O       9.78854      9.84730      4.70377         0.059512     -0.160852      0.119398
O       9.73688      9.46882      8.76927        -0.280181      0.809531      0.004834
O       3.94137      1.78458      2.52176        -0.762553      0.517332      0.016036
O       3.91954      1.87829     14.98836        -0.555945      0.378612      0.233254
O       3.96988     13.52357      2.53450        -0.320213      0.380256      0.181687
O       3.92486     13.62023     15.03096        -0.182144      0.160125     -0.360303
O       0.06346      1.71577      2.63973        -0.135576      0.973967     -0.358958
O       0.03583      1.93186     15.06099        -0.301703     -0.456880     -0.254690
O       0.01686     13.65718      2.46920         0.147200     -0.159091      0.234050
O      15.58627     13.56649     15.04542         0.472984      0.677164     -0.228012
O       3.86556      1.96385      6.61506         0.502768      0.010610      0.227020
O       3.89014     13.68838      6.53666         0.568875     -0.345665      0.517376
O      15.50204      1.97098      6.63467         0.783728     -0.123004      0.495965
O      15.59176     13.68543      6.72061         0.028643     -0.151473      0.047279
O       3.83474      1.94094     10.92319         0.484899     -0.090081     -0.383609
O       3.86577     13.63860     10.91891         0.210499     -0.022056     -0.183833
O      15.60262      1.94813     10.84823         0.461921     -0.108308     -0.073585
O      15.57027     13.62259     10.80853         0.547584     -0.081184     -0.059996
O       3.91011      5.77572      2.50473        -1.202836     -0.286913     -0.148480
O       3.81666      5.92662     15.11708         0.970719     -1.128001     -0.375802
O      15.58118      5.95199      2.63377         0.869934     -0.644153     -0.074027
O      15.46404      5.89940     14.97767         1.049032      0.120661      0.128945
O       3.83024      5.74611      6.71107         0.319551      0.032697      0.068127
O      15.48896      5.72647      6.72364        -0.016502      0.546215     -0.002577
O       3.89227      5.80736     10.95348        -0.813471      0.099713     -0.842177
O      15.44827      5.88562     10.86338         1.487697     -0.044507      0.037461
O       4.00742      9.83721      2.52430        -1.234039     -0.239279      0.286883
O       3.88264      9.72671     15.11758         0.523277      0.165170     -0.559948
O       0.04524      9.72021      2.54219        -0.368817     -0.073570      0.089938
O       0.05219      9.75740     14.92037        -0.107650      0.009651     -0.122113
O       3.84162      9.56260      6.83923         0.432730      0.635458     -0.062749
O      15.54720      9.83172      6.72190        -0.197863     -0.008929      0.272005
O       3.85703      9.83241     10.77007         0.600002     -0.768328     -0.025003
O      15.55202      9.85595     10.84217         0.123817     -0.219401      0.347114
O       7.87506      1.87755      2.54384        -0.532460      0.110788      0.363442
O       7.78234      1.99913     15.10677         0.730831     -0.220952     -0.657367
O       7.82235     13.72720      2.60691         0.520307     -0.280863     -0.361175
O       7.80526     13.75114     15.20280        -0.121295     -0.803339     -0.816417
O       7.86401      2.10180      6.65138        -0.837691     -0.845067     -0.142334
O       7.81473     13.49939      6.83328        -0.639401      0.192629     -0.129972
O       7.77824      1.84925     10.96738        -0.774106      0.480783     -0.600894
O       7.73861     13.63868     10.73995         0.086507     -0.154130      0.075331
O       7.74777      5.79482      2.67728         1.230547      0.144790     -0.015728
O       7.80993      5.70280     15.02362        -0.637351      0.841199     -0.405609
O       7.74544      5.72529      6.70096         0.455326      0.073362     -0.731542
O       7.75140      5.74840     11.06779        -0.106901      0.502529     -0.101372
O       7.88328      9.66391      2.51228        -0.384050      0.158789      0.391126
O       7.77973      9.59323     15.00107        -0.492220      0.354506      0.004971
O       7.77727      9.72941      6.77037         0.079873      0.306057      0.126946
O       7.85703      9.77012     10.95531        -0.580183      0.130602     -0.165529
O      11.81385      2.09329      2.51679        -0.479667     -0.692581     -0.243812
O      11.75010      2.00977     15.06119        -0.342044     -0.491526      0.166658
O      11.78083     13.62545      2.53541        -0.484647      0.154395      0.326436
O      11.68791     13.65044     14.83312        -0.476689      0.178174      0.512050
O      11.70039      1.98629      6.78257        -0.434344     -0.267473      0.006404
O      11.69103     13.74986      6.76004        -0.829577     -0.372208     -0.190829
O      11.65316      1.89027     10.84865         0.531153      0.409618      0.050852
O      11.66226     13.80293     10.95611        -0.658836     -0.495249      0.186128
O      11.70601      5.76483      2.39534         0.395641     -0.036296      0.027374
O      11.67325      5.78190     15.21025         0.327883     -0.181145      0.036189
O      11.61497      5.89004      6.82776         0.239428     -0.361207     -0.201809
O      11.55503      5.77365     10.77983         0.778318      0.069848      0.518378
O      11.81131      9.72760      2.53353        -0.427466      0.315377     -0.323191
O      11.68552      9.91748     15.01330        -0.059511     -0.443161      0.329672
O      11.67495      9.76069      6.76174         0.231858     -0.195126     -0.088828
O      11.70542      9.77374     10.94590        -1.423961     -0.279905     -0.144531
O       1.87199      3.82085      2.53799         0.261308      0.526467      0.025563
O       1.90065      3.90102     14.91828         0.243270     -0.283620      0.114174
O       1.92204     15.46950      2.60263         0.767140      0.604158     -0.351027
O       1.93966     15.60521     15.07962         0.071978     -0.427590     -0.297208
O      13.78162      3.89882      2.55837         0.279188      0.024445     -0.023689
O      13.74668      3.86610     14.99897        -0.505811     -0.052272      0.226407
O      13.69309     15.59911      2.46112        -0.332724     -0.189151      0.216664
O      13.64201     15.56709     15.08607         0.208982      0.656156     -0.153092
O       1.80562      3.87861      6.67767         0.288164     -0.122566     -0.006797
O       1.94835     15.60023      6.85365        -0.392557     -0.167204     -0.786120
O      13.56043      3.93804      6.71742        -0.186111     -0.654852      0.314437
O      13.55542     15.58438      6.72880         0.577797      0.578224      0.366181
O       1.96411      3.90710     10.93344        -0.413386      0.274314     -0.346593
O       1.95643     15.53950     10.73865        -0.248608      0.855694      0.010130
O      13.74317      3.91309     11.00009        -0.851218     -0.348004     -0.590351
O      13.65134      0.01035     10.89558         0.224561      0.460513     -0.251061
O       1.99800      7.77562      2.38369         0.094633     -0.377037      0.259978
O       2.01067      7.78069     15.08176        -0.508138      0.883708      0.003868
O      13.65188      7.81984      2.54167         0.091112     -0.222325      0.046659
O      13.47152      7.87094     14.96649         0.535716     -0.834077      0.037013
O       1.76684      7.74919      6.90317         0.253316     -0.239303     -0.385030
O      13.65373      7.84379      6.73010        -0.147803     -0.531424      0.063551
O       1.83974      7.80631     10.71264         0.572896     -0.550202      0.271398
O      13.55512      7.81188     11.06034         0.125857     -0.281761     -0.730048
O       1.96828     11.64641      2.48907        -0.076426      0.272264      0.596893
O       1.98472     11.71795     15.10553        -0.032421     -0.313350     -0.965594
O      13.76997     11.72862      2.47452        -0.205980     -0.958237      0.251327
O      13.65211     11.74414     15.00813         0.150630     -0.252377     -0.022352
O       1.92900     11.67414      6.61378         0.342197      0.323023      0.164286
O      13.55303     11.74129      6.78710         0.091186     -0.015408     -0.139764
O       1.93688     11.68199     11.02112        -0.050401      0.740453     -0.517551
O      13.45534     11.72126     10.88398         0.586088      0.726400      0.048891
O       5.83631      3.77782      2.64561         0.130299      0.256236     -0.015185
O       5.79012      3.85996     14.97641        -0.192914      0.582848     -0.104374
O       5.87123     15.58265      2.53574         0.083858     -0.709149      0.093762
O       5.81336      0.00103     15.03145         0.303121     -0.553261      0.283457
O       5.83968      3.81493      6.70475        -0.262469      0.625685     -0.326149
O       5.85113     15.53360      6.71874         0.286109      0.345401     -0.113406
O       5.88781      3.84093     10.91457        -0.442745     -0.551889     -0.023370
O       5.79957      0.01398     10.79037        -0.044751     -1.279285     -0.050337
O       5.87099      7.74708      2.53640         0.043247      0.114368     -0.252678
O       5.80656      7.74490     15.11015         0.110511     -0.274144     -0.648137
O       5.78206      7.69806      6.69903         0.301140     -0.187574      0.128970
O       5.93330      7.74091     10.90336        -0.611705      0.297380     -0.070624
O       5.98457     11.70456      2.62692        -0.099190     -0.164244     -0.201332
O       5.89177     11.65741     15.03620         0.174811      0.086658     -0.187621
O       5.71051     11.64131      6.75911         0.366022      0.141003     -0.193325
O       5.78355     11.64914     10.89617         0.380627      0.701736     -0.314889
O       9.73438      3.89781      2.39324        -0.136060      0.156642      0.437950
O       9.83510      3.91464     15.07283        -0.146684     -0.780960      0.636632
O       9.87295     15.60351      2.61871        -0.211071      0.171352     -0.012866
O       9.74276     15.59229     14.88795         0.227233      0.738959      0.505732
O       9.87863      3.88795      6.81254        -0.631751      0.422339     -0.269216
O       9.59375     15.57601      6.55906         0.089871      0.686378      0.318026
O       9.69726      3.82297     10.88534        -0.234222      0.578078     -0.024082
O       9.71180      0.02136     10.94874        -0.389432     -0.720421     -0.038645
O       9.85338      7.80951      2.80179        -0.328885     -0.065690     -0.938478
O       9.98649      7.77715     14.88303        -0.750527     -0.005157      0.352722
O       9.76198      7.76978      6.62413        -0.586226     -0.556918     -0.071464
O       9.76274      7.86214     11.01896        -0.586932     -1.197465     -0.305056
O       9.81984     11.70577      2.50917        -0.259481     -0.630001      0.067511
O       9.67959     11.72721     15.02150        -0.322141      0.074596      0.376636
O       9.79669     11.65291      6.91931        -0.417037      0.707725     -0.102553
O       9.87953     11.71089     10.71103        -0.743046     -0.191658      0.124525
