  # total energy = -7883.27980540 
CRSYTAL
PRIMVEC
    15.6080000000000005    0.0000000000000000    0.0000000000000000
     0.0000000000000000   15.6080000000000005    0.0000000000000000
     0.0000000000000000    0.0000000000000000   16.6239999999999988
PRESSURE
0.096945 -0.083534 1.46593 -0.154441 0.343171 -0.055434
PRIMCOORD
320 1
Pb       3.90351      3.79775      4.10020         0.030286      0.187115      0.096006
Pb       3.97212      3.93101      0.00257        -0.230760     -0.066529      0.071712
Pb       3.90683     15.55887      4.01570         0.316341     -0.010485      0.444821
Pb       3.90799     15.57149     16.53760        -0.288696      0.048238      0.432279
Pb       0.02668      3.89856      4.08011         0.214228     -0.167865      0.518888
Pb      15.60698      3.81732     16.60156         0.183350     -0.002387      0.261319
Pb      15.59382     15.49027      4.04978         0.012751      0.453281      0.443751
Pb      15.58774     15.59241     16.55119        -0.005055      0.332590      0.041681
Pb       3.85829      3.80822      8.22017        -0.133225      0.050567     -0.031167
Pb       3.85384     15.51917      8.14199        -0.115142     -0.292373      0.515034
Pb      15.49723      3.86370      8.26056         0.554373     -0.114167      0.305170
Pb      15.50675     15.53662      8.23328         1.102017      0.112416      0.831456
Pb       3.78572      3.83188     12.46281         0.528472      0.151841      0.180331
Pb       3.89699     15.60770     12.55282        -0.183721     -0.450576     -0.844692
Pb       0.05436      4.04867     12.55662         0.026455     -0.722148     -0.333124
Pb       0.07690      0.06217     12.59192        -0.062679     -0.127383     -0.235622
Pb       3.89041      7.83728      3.99306        -0.313737      0.156901      0.625472
Pb       3.91205      7.78360     16.52079        -0.303530      0.020534      0.395936
Pb      15.48158      7.82384      4.09972         1.228822     -0.227052      1.053211
Pb      15.57926      7.73605     16.51691        -0.031828      0.095132      0.413309
Pb       3.76596      7.75343      8.30258         0.344729     -0.361031      0.079336
Pb      15.38821      7.70160      8.48882         0.797510      0.008156     -0.654461
Pb       3.93162      7.74257     12.35290        -0.012923      0.425348      0.298407
Pb      15.51212      7.78887     12.45141         0.514507      0.701969      0.390475
Pb       3.85412     11.71791      4.02928        -0.040372     -0.403949      0.575627
Pb       3.81881     11.74774     16.62331         0.341917     -0.219535      0.135392
Pb      15.52650     11.62608      4.02282         0.618804     -0.024672      0.741065
Pb      15.56265     11.67759     16.53540         0.019887     -0.218710      0.284115
Pb       3.86228     11.78663      8.33685         0.234663     -0.139620     -0.356054
Pb       0.04650     11.69679      8.24048        -0.003224      0.315120      0.228904
Pb       3.84986     11.63103     12.37794         0.292173      0.305487      0.013279
Pb       0.03957     11.75370     12.48481        -0.191430     -0.003873     -0.117431
Pb       7.78163      3.77729      4.12280         0.268376      0.269635      0.170302
Pb       7.81249      3.94742     16.54534        -0.120917     -0.131402      0.384768
Pb       7.76320     15.57966      4.15001         0.112828     -0.152139      0.296087
Pb       7.78319      0.09697     16.57122         0.445864     -0.736924      0.202302
Pb       7.79897      3.80055      8.34739        -0.470232      0.343596     -1.046681
Pb       7.80928      0.03335      8.16437        -0.510091     -0.295006      0.253024
Pb       7.84931      3.75624     12.40957        -0.563567      0.473943      1.125405
Pb       7.72241     15.56653     12.36278        -0.024031     -0.198891      0.270726
Pb       7.87400      7.81430      4.16853         0.121775     -0.110848     -0.146976
Pb       7.60759      7.68235     16.59923         0.845624      0.600746      0.308475
Pb       7.79628      7.72174      8.18908         0.008751      0.191657      0.405935
Pb       7.68442      7.81367     12.40686        -0.196562     -0.141055      0.629294
Pb       7.81445     11.71009      4.13243         0.597537     -0.197457      0.374943
Pb       7.71375     11.81525     16.54076         0.469695     -0.800903      0.643687
Pb       7.89026     11.73506      8.31589        -0.752681     -0.432539      0.094035
Pb       7.78186     11.73172     12.39697        -0.217186     -0.354355      0.282076
Pb      11.80168      3.77871      4.18525        -0.595763      0.195758     -0.248055
Pb      11.67545      3.97031      0.13917         0.443992     -0.479417      0.228156
Pb      11.63672     15.46160      4.07359         0.414337      0.697494      0.839746
Pb      11.64688     15.58434     16.51264         0.275245     -0.431789      0.826661
Pb      11.71883      4.00866      8.39051         0.078115     -0.397626      0.015432
Pb      11.76120      0.11806      8.34481         0.020708     -0.340969      0.268146
Pb      11.72730      3.87021     12.39830        -0.214575     -0.021145      0.523205
Pb      11.49576      0.08348     12.39914         0.408131      0.115898      0.426480
Pb      11.75424      7.93203      4.24318        -0.507110     -0.781898     -0.120510
Pb      11.69084      7.79967     16.58741        -0.100722     -0.357856      0.524187
Pb      11.70528      7.71809      8.37239        -0.415901      0.199448     -0.042757
Pb      11.59224      7.97581     12.48700        -0.048964     -0.807783      0.618627
Pb      11.88351     11.55144      4.13718        -0.762281      0.395336      0.102294
Pb      11.55121     11.62740     16.53859         0.064559      0.492182      0.505380
Pb      11.72016     11.83796      8.49342         0.453335     -0.123088     -0.530752
Pb      11.61927     11.71042     12.44572        -0.002005      0.100058      0.286552
Ti       1.98985      1.95982      2.27141        -0.180068     -0.339992     -0.563772
Ti       2.05261      1.96953     14.69404        -1.506020      0.373893     -0.371325
Ti       1.87959     13.65910      2.20080         0.977417     -0.338557      0.030823
Ti       1.90717     13.63496     14.64601         0.189984      0.766505     -0.700736
Ti      13.70881      1.88404      2.30736        -0.234075      0.327869     -0.442594
Ti      13.73574      1.95443     14.63636        -0.635451     -0.528631      1.448671
Ti      13.64535     13.59694      2.13026        -0.527831      0.636651      0.364175
Ti      13.62911     13.59968     14.68598        -0.145705      0.786564     -0.738256
Ti       1.90022      1.84979      6.37064         0.097448      0.455293     -0.093534
Ti       1.92590     13.53328      6.21070         0.293094      0.282318      1.409569
Ti      13.63500      1.90008      6.42354         0.347859      0.738828     -0.019304
Ti      13.60637     13.62266      6.39745         0.151268     -0.232972      0.071369
Ti       1.94564      1.88780     10.60256         0.058339     -0.219426     -1.275284
Ti       1.90189     13.63376     10.50564         0.337131      0.959597     -0.466047
Ti      13.71056      1.99061     10.57983         0.079270      0.196142     -0.847275
Ti      13.59023     13.77364     10.67566         0.939806     -0.501202     -0.846536
Ti       1.92019      5.86553      2.21320        -0.035609     -0.239369      0.575822
Ti       1.91347      5.94792     14.60394         0.458362     -0.914764      1.419808
Ti      13.64739      5.85920      2.29626        -0.295275     -1.090426     -0.538797
Ti      13.62067      5.72785     14.68283        -0.214444      0.994603      1.697901
Ti       1.82598      5.76541      6.36710         0.439502     -0.116778      0.744206
Ti      13.54655      5.84750      6.36873         0.836320     -0.490936      0.157367
Ti       1.89677      5.82451     10.57980         0.359791     -0.047494     -1.425007
Ti      13.58463      5.98647     10.68503        -0.677074     -1.528580      0.163098
Ti       1.93138      9.70332      2.21231         0.354498      0.586529      0.162070
Ti       1.94158      9.79576     14.69831        -0.122320     -0.366208      0.254850
Ti      13.67383      9.66097      2.18768         0.396044      0.638464     -0.931632
Ti      13.60292      9.69523     14.77623         0.502247      0.089401      0.639156
Ti       2.00440      9.62579      6.47358        -0.405706      0.277423     -1.157139
Ti      13.70946      9.73973      6.47216        -0.208398      0.168981     -0.462264
Ti       1.92208      9.77282     10.48556         0.119591     -0.328805      0.467970
Ti      13.64778      9.85568     10.62447         0.321906      0.328134     -0.519941
Ti       5.93892      1.91952      2.16066        -0.857681     -0.088922      0.840125
Ti       5.94983      1.84043     14.62735        -0.306859      1.175653      0.838717
Ti       5.93092     13.58431      2.27628        -0.295645      0.135715      0.419090
Ti       5.82228     13.53762     14.65879         0.051893      0.271363      0.094155
Ti       5.80252      1.81171      6.31203         0.718270      0.861365     -0.223910
Ti       5.88881     13.45872      6.36522        -0.331250      0.853873     -0.417477
Ti       5.78936      1.93088     10.52031        -0.060876     -0.711133      0.010019
Ti       5.80850     13.63876     10.53729        -0.041646     -0.450562     -1.613816
Ti       5.83423      5.86946      2.23658        -0.005222     -0.582490      0.247099
Ti       5.82275      5.80291     14.75290        -0.139660     -0.757139     -0.852299
Ti       5.75392      5.82597      6.26132         0.309715     -1.453930      0.643104
Ti       5.76990      5.70308     10.58205         0.382021      0.669511      1.286619
Ti       5.98384      9.73631      2.23110        -0.293992      0.486036      0.366967
Ti       5.78164      9.69018     14.64434         0.942729      0.335571      0.638460
Ti       5.89559      9.62443      6.33780         0.157209      0.913711      0.530773
Ti       5.86821      9.72012     10.54438        -0.085758      0.081472     -1.029635
Ti       9.80559      1.90683      2.23019         0.531337      0.443333      0.663276
Ti       9.86774      1.93659     14.81886         0.064051      0.123376     -0.386475
Ti       9.82627     13.58526      2.27284        -0.315994     -0.218478     -1.281044
Ti       9.70985     13.65562     14.61923        -0.008429     -0.149031      1.431657
Ti       9.82535      1.97973      6.43688        -0.788860      0.356360     -1.511041
Ti       9.76668     13.65025      6.40513        -0.180751      0.028559     -0.952916
Ti       9.71184      1.96784     10.54532         0.282079     -0.344365      0.944220
Ti       9.75486     13.61335     10.47809        -1.649425      0.395023      1.598789
Ti       9.76243      5.82101      2.25089         0.154375     -0.174422      0.497564
Ti       9.81112      5.84745     14.80059        -0.605197     -0.497492      0.483404
Ti       9.69712      5.84592      6.33717         0.095643     -0.180978     -0.811587
Ti       9.63695      5.84958     10.75016         0.152524     -0.210167     -0.498558
Ti       9.87046      9.65578      2.12510        -1.715503      0.572797     -0.976419
Ti       9.66279      9.68909     14.69156        -0.422829      0.389425      0.439268
Ti       9.89471      9.75778      6.46296        -1.179890      0.222711      0.099532
Ti       9.76043      9.73197     10.50957        -1.205902     -0.306772      0.040152
O       1.89343      2.00994      0.48943         0.120987     -0.357584     -0.642471
O       1.97130      1.87703     12.87272         0.083799      0.113942      0.170894
O       1.95697     13.75817      0.43322         0.005435     -0.534464     -0.715932
O       1.85853     13.73249     12.83348         0.084468     -0.318798      0.591237
O      13.94605      2.03129      0.56239        -0.717191     -0.448663     -0.267407
O      13.72476      1.92383     12.91559        -0.094650      0.281886     -1.469183
O      13.66133     13.67994      0.37381         0.064614     -0.313856     -0.167422
O      13.73515     13.62334     12.85623        -0.312229     -0.068114      0.685958
O       1.96698      1.76692      4.60499         0.008697      0.490712     -0.561701
O       1.84272     13.45337      4.44351         0.130973      0.757055      0.210462
O      13.55707      1.85661      4.65497         0.390217      0.195320      0.248913
O      13.63437     13.59001      4.63342         0.061014      0.004328      0.262371
O       1.92403      1.93549      8.83731         0.274267      0.080969     -0.286430
O       2.13268     13.63646      8.70698        -0.311700     -0.190464      0.688101
O      13.60135      1.98159      8.75209         0.157399     -0.368706      0.892564
O      13.48166     13.61626      8.88065         0.016788      0.308028     -0.330260
O       1.83440      5.78057      0.47630         0.117476      0.428766     -1.019385
O       1.90171      6.01636     12.85532         0.127615     -0.125181     -0.242664
O      13.64138      5.74064      0.52146         0.574945      0.235389      0.363851
O      13.53377      5.84841     12.94895         0.371397     -0.010185     -0.951257
O       2.04088      5.75869      4.63548        -0.232969      0.250642     -0.321334
O      13.56060      5.94937      4.61167         0.009056     -0.157972     -0.022593
O       1.82071      5.62291      8.79699         0.176658      0.640790      0.509441
O      13.55837      5.93369      8.92115         0.331632     -0.014124     -0.575381
O       1.97119      9.79851      0.45138        -0.084918     -0.084270     -0.386008
O       1.93809      9.80103     12.94727        -0.016170     -0.160423     -0.523112
O      13.72972      9.70696      0.40610        -0.022975     -0.163587      0.425950
O      13.82717      9.78096     13.05536        -0.758675     -0.312267     -1.580879
O       1.99464      9.63621      4.68642        -0.215537      0.053652      0.171616
O      13.60525      9.74433      4.61403        -0.112632     -0.108704      0.846958
O       1.79704      9.88436      8.73479         0.428069     -0.166946     -0.309602
O      13.65255      9.68533      8.85033        -0.028719      0.390541     -0.255674
O       5.86333      1.90315      0.40653         0.053841     -0.295545     -0.301999
O       5.79413      1.83419     12.86271         0.074904     -0.050077      0.570637
O       5.91821     13.42139      0.51944        -0.453426      0.362738     -0.622662
O       5.89502     13.59584     12.91612        -0.174953      0.188148     -0.165482
O       5.90185      1.80930      4.51651        -0.315582      0.406207      0.159069
O       5.98216     13.57713      4.54925         0.068662     -0.042386      0.382329
O       5.88488      1.92646      8.76192         0.029237      0.076934     -0.785655
O       5.92711     13.64179      8.64269        -0.605576     -0.228937      1.306553
O       5.77972      5.80548      0.43029         0.341139      0.204412      0.588680
O       5.72318      5.81106     13.01622         0.046841     -0.007136     -1.015280
O       5.80510      5.85041      4.49949        -0.234902      0.089878     -0.664711
O       5.83320      5.69347      8.88872         0.185613      0.020494     -1.690754
O       5.93121      9.85995      0.47203        -0.189607     -0.266235      0.161229
O       5.75238      9.55961     12.90536         0.225267      0.565364     -0.714066
O       5.89636      9.57883      4.56531        -0.049730      0.059530      0.469705
O       5.85592      9.69899      8.77111         0.125746     -0.022403      0.254881
O       9.90911      1.73619      0.46477        -0.631672      0.382811     -0.434505
O       9.82728      1.96868     13.05839        -0.015370     -0.097058     -0.989729
O       9.91856     13.78612      0.48092        -0.389105     -0.244570      0.474380
O       9.67058     13.44054     12.88185         0.170112      0.499190     -0.359822
O       9.90852      2.14331      4.62907        -0.438142     -0.536621      1.348376
O       9.73957     13.68299      4.57132         0.191351     -0.561978      1.048702
O       9.83802      1.95832      8.81740        -0.636053     -0.009123     -0.828210
O       9.60822     13.77514      8.77495         0.560903     -0.144441     -1.316364
O       9.58596      5.90471      0.45590         0.599061     -0.369901      0.053362
O       9.73201      5.62346     13.08538         0.230939      0.307315     -0.762185
O       9.85883      5.95284      4.56450        -0.275797     -0.458112      0.444331
O       9.62571      5.95941      9.00394         0.212810     -0.269217     -0.805981
O       9.76899      9.61664      0.30872         0.292547      0.262999      1.174624
O       9.70475      9.79612     12.89700         0.373577     -0.016549      0.420867
O       9.92361      9.85974      4.69113        -0.026771     -0.389996     -0.476167
O       9.77367      9.51671      8.74952         0.047364      0.145852      0.255147
O       3.92743      1.82930      2.53635        -0.007302      0.290357     -0.032321
O       3.85375      1.96896     15.00044         0.765593     -0.311045     -0.007259
O       3.90737     13.52266      2.49079         0.234530      0.063627     -0.013588
O       3.89145     13.64257     14.98720         0.043166      0.193531      0.132465
O       0.02678      1.85412      2.61909         0.408940     -0.135660      0.459789
O       0.00798      1.96254     14.99195         0.398360      0.190091     -0.074544
O      15.56162     13.64339      2.40020         0.010942      0.035584      0.324748
O       0.02331     13.63141     14.92024        -0.489783     -0.513603      0.451156
O       3.89560      1.89991      6.67236         0.049792     -0.128607     -0.068773
O       3.91770     13.58867      6.57403        -0.104907      0.361185     -0.014799
O       0.01406      1.98982      6.77462        -0.944756     -0.529365     -0.342745
O       0.06157     13.60339      6.69923        -0.966982      0.268220     -0.068295
O       3.94447      1.94204     10.81812        -1.142018     -0.079613      0.526808
O       3.91867     13.58442     10.92785         0.020391     -0.071902     -0.189101
O       0.01026      1.92893     10.80420        -0.317921      0.023095      0.536667
O      15.55178     13.64596     10.61849         0.346707     -0.059657      0.802521
O       3.84141      5.85334      2.47165         1.225774      0.125078      0.090765
O       3.87304      5.73643     15.01739        -0.825122      0.746847      0.266100
O       0.04823      5.84601      2.69241        -0.854544     -0.042072     -0.204105
O      15.57646      5.88599     14.85260         0.081271      0.194127      0.170096
O       3.85718      5.73536      6.80629         0.134230      0.829126     -0.435346
O      15.50640      5.82697      6.68385        -0.042678     -0.271698      0.111542
O       3.84052      5.92375     10.90945         0.187651     -0.639440     -0.304434
O      15.60384      5.84250     11.00656        -1.059918      0.372357     -0.204295
O       3.87852      9.78178      2.56716         0.134627     -0.295913     -0.376925
O       3.98737      9.70964     15.06842        -1.428971      0.230366      0.083303
O      15.57142      9.71262      2.62084         0.100488     -0.044197     -0.447297
O       0.00921      9.67892     15.04245         0.439413      0.203171      0.171810
O       3.86993      9.62933      6.75663         0.410575     -0.069692      0.005046
O      15.55317      9.82244      6.70890        -0.182387     -0.389370      0.062621
O       3.89670      9.74097     10.78607        -0.649011      0.281616      0.131679
O      15.58756      9.93376     10.92486        -0.226393     -0.587214     -0.245830
O       7.81844      1.97022      2.49510         0.070848     -0.204120     -0.052107
O       7.86041      1.88911     14.92765        -1.059098      0.027595      0.398350
O       7.93838     13.63270      2.47545        -1.117686     -0.238822      0.332294
O       7.75310     13.63185     15.05656         0.212897      0.406728     -0.363110
O       7.77443      1.93336      6.62174         0.920317      0.556608      0.539704
O       7.80772     13.50985      6.71982         0.627850      0.228850     -0.321079
O       7.72310      1.94913     10.88958         0.958355     -0.168812     -0.129479
O       7.78261     13.48907     10.92165         0.239690      0.829679     -0.372414
O       7.86545      5.71419      2.57386        -1.504938      0.530602     -0.058448
O       7.73696      5.86885     15.04389         0.966777     -0.428376      0.176768
O       7.78381      5.74301      6.59785        -0.054484      0.526293      0.324841
O       7.70535      5.78862     11.02372         0.209639     -0.205839     -0.022109
O       7.87958      9.63409      2.62554         0.152321      0.564567     -0.295340
O       7.79785      9.75414     15.05655         0.104824     -0.465249     -0.593010
O       7.86061      9.76858      6.69898        -0.603727     -0.378642     -0.187160
O       7.82404      9.74566     10.87343         0.066132     -0.305370     -0.044831
O      11.73543      1.93768      2.57413         0.530399      0.125367     -0.218165
O      11.78207      1.78521     15.06010         0.080270      0.754693     -0.328099
O      11.72338     13.68425      2.56336         0.791019     -0.480504     -0.019314
O      11.70730     13.65700     14.93035         0.322244     -0.141074     -0.369663
O      11.70815      1.94657      6.86220        -0.058069     -0.125016     -0.527773
O      11.65782     13.70733      6.75702         0.626005     -0.053866     -0.032489
O      11.64977      1.95005     10.90743        -0.232687     -0.445131     -0.021810
O      11.57527     13.64756     10.90282         0.622458      0.252397      0.051812
O      11.74703      5.81908      2.52983        -0.019806      0.021308     -0.231250
O      11.71343      5.71782     15.27006        -0.511781      0.643638     -0.899265
O      11.69506      5.78800      6.80723        -0.354406      0.512452     -0.012429
O      11.69394      5.82999     11.01533        -0.260587      0.411745     -0.307762
O      11.74278      9.67247      2.47994         0.330725     -0.080901      0.174181
O      11.70317      9.76487     15.05057        -0.196067     -0.117152     -0.519569
O      11.72802      9.75049      6.74475         0.796980     -0.172292      0.299980
O      11.63217      9.67996     10.94113         0.717884      0.201432     -0.166560
O       1.94600      3.87523      2.48129         0.030192     -0.282682      0.718798
O       1.87339      3.97288     14.81324         0.123986     -0.531800      0.074159
O       2.08758     15.56963      2.54214        -1.012457     -0.626916     -0.169810
O       1.86080     15.58171     14.86553         0.520490      0.602877      0.573381
O      13.77261      3.86150      2.67652        -0.376497      0.236607     -0.170725
O      13.57234      3.89421     15.11205         0.513230     -0.683049     -0.576148
O      13.63823     15.53897      2.64472         0.269040     -0.155878     -0.633014
O      13.79300      0.00681     14.96544        -0.178696     -0.708160     -0.066537
O       1.90328      3.81512      6.63834         0.106858      0.418867      0.196471
O       1.91073     15.57898      6.71079         0.088641     -0.678119     -0.251853
O      13.59112      3.86548      6.80071        -0.072871      0.434071     -0.530428
O      13.72896     15.60592      6.81942        -0.764359     -0.556739     -0.584877
O       1.93146      3.93774     10.92938         0.059652     -0.552732      0.635616
O       2.08553     15.57193     10.82200        -0.498675      0.194706      0.367784
O      13.54401      3.88021     10.82344         0.622472      0.370247      0.434397
O      13.60231      0.04567     10.84890        -0.283054     -0.360185      0.252656
O       1.85084      7.79149      2.56684         0.422899      0.124782     -0.249093
O       2.01974      7.90522     15.04431        -0.139938     -1.575313     -0.080753
O      13.71791      7.79747      2.63738        -0.515499     -0.220829     -0.703235
O      13.57654      7.68175     15.18257         0.243949      0.645484     -0.891059
O       1.79539      7.72168      6.85381         0.473942      0.273101     -0.015194
O      13.61643      7.74641      6.85691        -0.026256      0.822565     -0.526814
O       1.92522      7.85571     10.64102        -0.443872     -0.021050      0.486493
O      13.64821      7.88588     10.89055         0.203930     -0.364008      0.432728
O       1.84162     11.65144      2.53143         0.137745      0.123377     -0.308408
O       2.01563     11.72791     14.90056        -0.264630     -0.260250      0.582044
O      13.66383     11.61182      2.52022        -0.184679      0.797928     -0.317580
O      13.68973     11.62410     15.07125        -0.088326      1.134116     -0.224582
O       1.97358     11.69397      6.68742        -0.023907     -0.305079      0.008984
O      13.65321     11.74385      6.72921        -0.433732     -0.574993      0.142086
O       1.98042     11.77288     10.88951        -0.178016     -0.950193     -0.075991
O      13.45330     11.73008     10.89929         0.247854     -0.458789      0.097196
O       5.75044      3.80700      2.48629         0.274942      0.951453      0.073107
O       5.82590      3.82715     15.14527         0.322322     -0.300002     -0.647277
O       5.91932     15.49881      2.56474        -0.117182      0.224158     -0.559723
O       5.79712     15.59712     15.08495         0.161181     -0.317663     -0.429971
O       5.84274      3.88762      6.54011        -0.202012     -0.156736      0.384057
O       6.01138     15.55973      6.54151        -0.614881     -0.225270      0.461523
O       5.76417      3.78445     10.95969         0.153126      1.154183     -0.197826
O       5.79662     15.47946     10.83609         0.478206      1.207682      0.296495
O       5.91096      7.83206      2.46004        -0.203085     -1.447969     -0.093705
O       5.83583      7.72391     15.00002        -0.248133      0.816548      0.472384
O       5.84764      7.73099      6.67296        -0.023894     -0.110000      0.144883
O       5.86125      7.79151     10.85676        -0.105733     -0.548541      0.068401
O       5.95524     11.63016      2.81064        -0.204640      0.121735     -1.279145
O       5.82095     11.63596     14.96697         0.070895      0.603631     -0.167650
O       5.79924     11.61113      6.66245         0.153155     -0.340796     -0.204438
O       5.88351     11.70145     10.90134        -0.455916     -0.832345     -0.008582
O       9.79295      3.86416      2.62136         0.130110      0.318487     -0.637136
O       9.79471      3.81703     15.21129        -0.083656      0.509871     -0.038579
O       9.78938      0.09068      2.70239        -0.283012     -0.981244     -0.376054
O       9.73637     15.57637     15.03290         0.015248     -0.543254     -0.411206
O       9.79389      3.96059      6.81896        -0.152687     -0.839840      0.088387
O       9.70209      0.01706      6.64937         0.181940     -0.092514      0.144425
O       9.68241      3.86190     10.97189         0.225586     -0.245331     -0.415495
O       9.56361     15.58954     10.95456         0.887820      0.196473     -0.403270
O       9.76455      7.77222      2.50444         0.217359      0.131237      0.430497
O       9.90064      7.77067     14.95819        -0.398817      0.030901     -0.404256
O       9.77292      7.73672      6.65739         0.073964      0.553698      0.272345
O       9.69463      7.68229     11.13748         0.216018      1.298963     -0.393394
O       9.86194     11.61896      2.34543        -0.025382      0.249050      0.430244
O       9.72932     11.77182     15.10994         0.147396     -0.656574     -0.505660
O       9.83453     11.72182      6.95753         0.057542     -0.050634     -0.659520
O       9.75569     11.63074     10.63907         0.322540      0.262911      0.227042
