  # total energy = -7873.89782452 
CRSYTAL
PRIMVEC
    15.6080000000000005    0.0000000000000000    0.0000000000000000
     0.0000000000000000   15.6080000000000005    0.0000000000000000
     0.0000000000000000    0.0000000000000000   16.6239999999999988
PRESSURE
-0.062431 0.506115 -0.849595 -0.093194 0.040829 0.02578
PRIMCOORD
320 1
Pb       4.02862      3.98834      4.13631        -0.169819     -0.911277     -0.122806
Pb       4.10151      4.08564      0.16758        -0.552632     -0.335079     -0.501728
Pb       3.86958      0.03393      3.99604         0.255629      0.187795     -0.524268
Pb       3.75812     15.57301     16.60810         0.260845      0.015310     -0.030152
Pb       0.10226      3.83122      4.19725        -0.267391     -0.333905     -0.446161
Pb      15.48902      3.79972     16.59825         0.200727     -0.008227      0.385993
Pb      15.56212     15.53805      4.00977        -0.315392     -0.219159      0.063773
Pb      15.49206     15.56532     16.55371         0.099563     -0.131432      0.411496
Pb       3.62308      3.74377      8.35269         0.794916      0.754747     -0.046330
Pb       3.89035      0.08475      8.26905        -0.112382     -0.546555      0.281447
Pb      15.53246      3.77719      8.29615        -0.692269      0.428478     -0.011022
Pb       0.14162     15.58488      8.21456        -1.211459     -0.363509     -0.310988
Pb       3.89520      3.93421     12.40819        -0.695083     -0.011239      0.122458
Pb       3.83635     15.40157     12.30889        -0.235891      0.265031      1.015001
Pb      15.59661      3.80285     12.44992         0.331123      0.535806     -0.153758
Pb      15.58083      0.32196     12.64812        -0.034697     -0.861632     -0.165852
Pb       3.79236      7.87645      4.30942         0.100103      0.029163     -0.393671
Pb       3.81131      7.74406     16.60984         0.399540     -0.032915     -0.419122
Pb       0.24354      7.91045      4.27254        -1.046784      0.239841     -0.511513
Pb       0.04320      7.73196     16.62142        -0.116950      0.333586      0.349695
Pb       4.04311      7.65368      8.15110        -0.721656      0.839354      0.064828
Pb      15.35479      7.73765      8.62621         0.010150      0.095289     -0.473522
Pb       3.92630      7.89559     12.41940        -0.313993     -0.554744      0.293202
Pb      15.57460      7.99794     12.62006         0.159771     -0.495229     -0.418752
Pb       3.81724     11.67141      4.06813        -0.090631      0.334414      0.119975
Pb       3.91583     11.62899     16.45750        -0.376092      0.418395     -0.230498
Pb      15.57945     11.67528      4.04382        -0.119828     -0.291028      0.563616
Pb      15.53356     11.85724     16.56359         0.369639     -0.411565     -0.057697
Pb       3.84180     11.63770      8.03663        -0.297584      0.272542      0.765554
Pb      15.58405     11.60094      8.32251        -0.553906      0.326929     -0.360527
Pb       4.05345     11.67133     12.26674        -0.572403     -0.255819      1.146168
Pb       0.24584     11.53194     12.30445        -1.292929      0.533405      0.496965
Pb       7.85121      3.69644      4.19987        -0.373511      0.324191      0.635701
Pb       7.83779      4.00490      0.11575        -0.365962      0.130131     -0.455431
Pb       7.75289     15.40837      3.98594         0.279333      0.831969      1.041043
Pb       7.90482      0.19182      0.13094        -0.460633     -0.500876     -0.587472
Pb       7.54973      3.97280      8.36874         0.674783     -0.385754     -0.491815
Pb       7.89696     15.51065      8.32994         0.032131      0.600988     -0.472899
Pb       7.64190      3.74182     12.42123         0.826086      0.644745     -0.368012
Pb       7.63232     15.56215     12.57025         0.431769     -0.481119     -0.066357
Pb       7.68859      7.86082      4.15641         0.814184     -0.095118      0.346681
Pb       7.79745      8.02873     16.57689        -0.393184     -0.597892      0.342086
Pb       7.82927      7.74825      8.24950        -0.158524      0.238154      0.071545
Pb       7.81852      7.54402     12.36636         0.104234      1.065498      0.099814
Pb       8.01359     11.69877      4.33623        -0.212615      0.322892     -0.293855
Pb       7.61298     11.70230     16.62352         0.195213     -0.390804      0.027777
Pb       7.60706     11.74615      8.08569         0.461558      0.218695      0.701782
Pb       7.66642     11.45504     12.39247         0.657094      0.453814      0.330058
Pb      11.82791      3.89945      4.41355        -0.033456      0.075256     -0.393734
Pb      11.83231      4.09519      0.16235         0.112652     -0.008928      0.029969
Pb      11.52308     15.45618      4.19059        -0.182580     -0.374400     -0.163079
Pb      11.55375     15.49548      0.09424         0.875975      0.238930     -0.777898
Pb      11.76234      4.14572      8.43827        -0.033438     -0.291772      0.286266
Pb      11.62063      0.15229      8.25734        -0.132749     -0.398600      0.515548
Pb      11.84826      3.81333     12.66595         0.311308      0.168235     -1.133883
Pb      11.85545     15.53554     12.42713        -0.632593      0.304640      0.271944
Pb      11.74140      7.46193      4.04291         0.278363      1.429293      0.631403
Pb      11.39209      7.78091      0.03314         0.152035      0.173945     -0.194184
Pb      11.52338      7.96036      8.25901         0.731598     -0.502730      0.176471
Pb      11.46427      7.92578     12.70802         0.509291      0.229167     -0.605868
Pb      11.65418     11.24681      4.29239         0.220134      0.838366     -0.276892
Pb      11.81668     11.80464     16.50156        -0.951242     -0.446586      0.292952
Pb      12.05766     12.00050      8.47821        -0.623357     -1.095579     -0.379950
Pb      11.59490     11.91745     12.40378         0.241637     -0.458433     -0.635733
Ti       1.74897      1.81668      2.12554         1.556774     -0.259752     -0.818574
Ti       1.96992      1.93153     14.76054         0.608844     -0.276357      1.094076
Ti       1.88968     13.51002      2.13580         0.178938      1.524138      0.703441
Ti       1.88680     13.64651     14.55840         1.169323     -0.305952     -0.155611
Ti      13.48832      1.91777      2.19539         1.002044     -0.523690     -0.985110
Ti      13.50613      1.97241     14.88449         0.431857     -1.456991     -0.345355
Ti      13.51654     13.55537      2.23201         0.420959      0.487966     -0.395956
Ti      13.63407     13.58263     14.66392        -0.013867      2.126244     -0.966790
Ti       1.88365      1.95495      6.32109        -0.368686      0.350201     -1.621423
Ti       1.92876     13.81574      6.08944        -0.694929     -2.116589      0.908668
Ti      13.60055      1.86406      6.26069         1.143009     -0.512316     -0.156353
Ti      13.69214     13.64764      6.18055         0.010853     -0.227444      0.304979
Ti       1.94470      1.90797     10.49092        -0.286839      0.403223      2.808886
Ti       1.98120     13.48694     10.40706        -0.877509      0.744868      1.152170
Ti      13.58170      1.89919     10.45701         0.477133      0.983717     -0.144911
Ti      13.73525     13.70308     10.54515         0.678623     -1.060267      0.598639
Ti       2.05796      5.71024      2.21538        -0.379003      0.198285     -0.476454
Ti       1.79301      5.69964     14.79958         1.713554      0.507353     -0.813678
Ti      13.83173      5.83209      2.19674        -0.310696      0.878314     -0.281502
Ti      13.53862      5.98289     14.66340         0.778233     -1.147676     -1.226736
Ti       1.88064      5.90845      6.27581         0.176822      0.456259      1.220069
Ti      13.68944      5.84094      6.31436        -0.488580      0.440455     -0.094588
Ti       2.12286      5.88959     10.39502        -1.476274     -0.513561      0.330394
Ti      13.84471      5.77341     10.64201        -0.989643      0.078088     -0.537496
Ti       1.92055      9.69908      2.14167        -0.647662     -0.030894     -0.706536
Ti       1.94185      9.63860     14.59621        -0.074774      0.799858      0.254808
Ti      13.62801      9.69515      2.14152         0.404741     -0.455724      1.447592
Ti      13.61525      9.77006     14.60731         0.286952     -0.063751     -1.190581
Ti       1.79522      9.81074      6.43672         0.685512     -0.750118     -0.454099
Ti      13.65064      9.63814      6.27799        -0.585642      0.911822      1.295873
Ti       2.02695      9.66500     10.41996        -0.470557     -0.752397      1.052451
Ti      13.48927      9.60507     10.65540         0.148926      1.335326     -0.503356
Ti       5.81726      2.00755      2.10535        -0.612893     -0.762128      0.435749
Ti       5.91669      2.04997     14.59927        -1.670367     -0.951480      1.805286
Ti       5.83546     13.56468      2.16407        -0.724873      0.931998     -1.301091
Ti       5.95452     13.80568     14.83907        -1.476313     -1.073423     -0.403703
Ti       5.81428      1.87519      6.42568         1.525810      1.148133     -0.846179
Ti       5.72786     13.82867      6.35782         0.882682     -1.665148      0.272348
Ti       5.86025      1.85843     10.52570        -1.395666     -0.000279     -1.326358
Ti       5.91665     13.58326     10.48344        -0.475961     -0.109475     -0.769940
Ti       6.00467      5.86485      2.38932        -0.465477     -0.189013     -0.706088
Ti       5.88966      5.82022     14.61684        -1.071678      0.681762     -0.003805
Ti       5.77667      5.80404      6.26994         0.712653     -0.139390     -0.525919
Ti       5.93738      5.88216     10.53410        -0.466872     -0.358202     -0.331440
Ti       5.74076      9.77670      2.26461         0.677457     -0.386910     -1.444997
Ti       5.78171      9.69120     14.64906         0.489970      0.348123      0.506968
Ti       5.80466      9.77260      6.24639        -0.707215     -0.060591      1.595386
Ti       5.88464      9.65412     10.43445        -0.003922      0.053322     -1.858055
Ti       9.76937      2.04185      2.18143        -0.536425     -1.263921      0.897906
Ti       9.71144      2.06742     14.64525         0.379668     -1.339343     -1.019677
Ti       9.73203     13.53125      2.16638         0.240769     -0.092544      0.420282
Ti       9.66381     13.68216     14.63705         0.377478     -0.066634     -0.570334
Ti       9.82911      1.83919      6.30535        -1.749679      0.516817      1.064377
Ti       9.85865     13.58945      6.49318        -0.900725      1.135908     -0.940045
Ti       9.61473      1.91448     10.57456         2.110580      0.368890     -1.674511
Ti       9.64652     13.64104     10.39476         2.112228      0.134222     -0.486474
Ti       9.76553      5.77246      2.29658        -0.098808      1.714942      0.053429
Ti       9.65018      5.87354     14.47260         0.932287      0.355168      0.718821
Ti       9.69342      5.74931      6.32927         0.123002     -0.680397      0.991756
Ti       9.92089      5.78919     10.46729        -0.033664     -0.261129     -1.197996
Ti       9.62596      9.64794      2.29006         0.268469      0.377898     -0.035936
Ti       9.70848      9.87859     14.62071        -0.740901     -0.438837      0.727714
Ti       9.68649      9.70412      6.39883         0.928299      0.738941     -0.577658
Ti       9.73316      9.74544     10.32497         0.554480      0.165493     -0.460950
O       1.94033      1.54663      0.33037        -0.283711      0.682355      1.214143
O       1.77009      2.00924     13.00210         0.076633      0.176239     -1.049892
O       1.68160     13.61044      0.39007         0.480356     -0.123959     -0.759509
O       2.05642     13.67528     12.76433        -0.259119     -0.219740      0.448572
O      13.33287      1.86743      0.31214         0.621788      0.751001      0.677931
O      13.63159      1.84571     13.02609         0.097881      0.060202      0.131020
O      13.53164     13.39271      0.32804         0.327889     -0.166744      1.050753
O      13.68481     13.86539     12.85935        -0.476668     -0.714828     -0.007658
O       1.85843      1.93532      4.51875        -0.048837      0.264406      0.167509
O       1.99526     13.63144      4.34585         0.131972     -0.040672      0.368618
O      13.71397      2.04143      4.43128        -0.445839     -0.319090     -0.253850
O      13.49317     13.70861      4.42609         0.360326     -0.276678     -0.281708
O       1.85917      2.10451      8.77859         0.024423     -0.360773     -2.266449
O       1.85172     13.66465      8.67114        -0.041424     -0.095977     -0.087494
O      13.67980      1.96112      8.65409        -0.181533     -0.279783      0.466082
O      13.80228     13.50850      8.74782         0.205072      0.779920      0.115248
O       2.12792      5.89001      0.43121        -0.273540      0.159447      0.201752
O       1.90618      5.67043     13.02223        -0.197337     -0.033959      0.821097
O      13.53048      6.13478      0.40034        -0.031046     -1.076885     -0.461032
O      13.67418      5.68328     12.78319        -0.175854      0.361258      1.364283
O       1.77971      5.79285      4.48603         0.340974     -0.373606     -0.348380
O      13.60657      5.71728      4.45814         0.497690     -0.396879      0.806327
O       2.26466      5.82850      8.60210        -0.540059     -0.213098     -0.223043
O      13.70489      5.68338      8.77964         0.037867      0.506677     -0.841895
O       1.91811      9.65929      0.30816        -0.204232      0.052310      0.878967
O       2.06441      9.50220     12.79716        -0.375708      0.313206     -0.021656
O      13.85602      9.72417      0.38327        -0.803986     -0.182191     -0.516794
O      13.61662      9.79078     12.77269        -0.401804     -0.552549      1.108984
O       1.78629      9.83494      4.62325         0.409210     -0.611591     -0.270914
O      13.84780      9.75682      4.57205        -0.394733      0.185636     -0.995583
O       1.87041      9.86459      8.71324         0.004306     -0.465978     -1.543772
O      13.51151      9.66557      8.82219         0.357682     -0.312438     -0.378574
O       5.85039      2.13882      0.32245         0.513208     -0.536963      0.145495
O       5.81832      2.01279     12.83059         0.835961     -0.248127     -1.069295
O       5.97195     13.68023      0.28753        -0.197354     -0.433345      1.486682
O       5.89972     13.67666     13.04256         0.161504     -0.381070     -1.143563
O       5.78153      1.78940      4.64510        -0.251722      0.570186      0.201169
O       5.76366     13.68289      4.61370        -0.135749      0.000140     -0.782904
O       5.81450      1.75431      8.69624        -0.356261      0.527917      1.004212
O       5.83100     13.66303      8.72999        -0.315887      0.158892     -0.032978
O       5.93703      5.74012      0.55961         0.274832      0.098838     -0.338605
O       5.91817      5.75120     12.77981         0.179795      0.131679      0.667620
O       5.79856      5.63366      4.48403         0.384203      0.422406      0.425887
O       5.80873      5.86030      8.73076         0.149616      0.216415     -0.145886
O       5.83360      9.66049      0.39744        -0.531182     -0.100082      0.913632
O       5.91158      9.74394     12.83590         0.135271     -0.184334      0.173367
O       5.72222      9.85451      4.50340         0.100544     -0.018274     -1.285382
O       5.84051      9.65405      8.62795        -0.144498     -0.196362      0.821178
O       9.55512      2.02637      0.39032         0.542893      0.258535      0.190677
O       9.69766      1.80255     12.81812        -0.432536      0.574736      0.346431
O       9.68343     13.57661      0.35499         0.207336      0.044012      0.967577
O       9.71936     13.61907     12.78032        -0.129567      0.150890      0.717589
O       9.87575      1.73629      4.56423        -0.445108      0.494537     -1.417645
O       9.60355     13.86207      4.63686         0.524611     -0.618517     -0.150498
O      10.04798      1.98399      8.73591        -0.768732     -0.278895      0.855388
O       9.79325     13.67205      8.53450        -0.115675     -0.334665      1.286902
O       9.67736      5.85166      0.49397         0.208879     -0.209087     -0.395440
O       9.84128      5.92701     12.69030        -0.338163      0.001616     -0.198194
O       9.82930      5.88002      4.57325         0.397017      0.038723     -0.044161
O       9.90935      5.70230      8.54508        -0.602343     -0.066367      0.621365
O       9.70131      9.58500      0.50585         0.105967      0.296939     -0.553829
O       9.54516      9.77379     12.86515         0.380268     -0.302841     -1.081031
O       9.53612      9.78503      4.48262         0.291245     -0.005163      1.246125
O       9.88163      9.72211      8.49456        -0.368547      0.225368      0.467528
O       3.93844      1.82062      2.39488         0.079584      0.013661      0.191797
O       3.89619      1.97612     14.84349         0.127184     -0.667985      0.337394
O       3.85744     13.50678      2.31102         0.555288      0.634020      0.148906
O       3.85130     13.76643     15.05928         0.050022     -0.276397     -0.041819
O      15.48297      1.84129      2.36874         0.725745      0.234305     -0.082735
O      15.53456      1.88912     15.16582        -0.740178      0.235034     -0.544091
O      15.48463     13.56221      2.56722         0.026450     -0.111929     -0.569595
O      15.55302     13.61401     14.91383         0.316166     -0.677010      0.019209
O       3.79186      2.04900      6.76454         0.100480     -0.438615     -0.188075
O       3.74414     13.66387      6.68760         0.975992      0.005223     -0.221443
O      15.57581      1.79181      6.60081         0.710900      0.306269      0.423269
O       0.00482     13.68813      6.31206         0.681777      0.115658      0.586774
O       3.91281      1.88693     10.83668        -0.145508      0.488978     -0.330060
O       3.96228     13.47080     10.81839        -0.503325      0.574390     -0.456383
O      15.56622      1.96251     10.87212         0.678329      0.125402     -0.142414
O       0.09032     13.44102     10.85255         0.115254      0.441222     -0.595913
O       3.97718      5.74576      2.55123        -0.745095      0.106458      0.091666
O       3.87082      5.90719     14.97568         0.960323     -0.434055      0.149161
O       0.12750      5.69662      2.22442        -0.461982     -0.017312      0.559072
O      15.52973      5.84994     15.11378        -0.300116     -0.576892     -0.064013
O       3.92066      5.92267      6.34093        -1.075570     -0.565338      0.574276
O      15.56209      6.09484      6.72798         0.112420     -0.875117     -0.342832
O       3.90840      5.89886     10.89592         1.428421     -0.531391      0.013052
O       0.07269      5.82200     10.58016         0.710598      0.297932      0.402205
O       3.78443      9.78020      2.55262         0.708756     -0.402343      0.112213
O       3.81680      9.56785     14.92441         1.156280      0.074125     -0.009181
O       0.05588      9.72405      2.61421        -0.449918      0.272477     -0.871706
O      15.52351      9.72296     14.62825         0.206775     -0.158773      0.695059
O       3.81016      9.72621      6.65655         0.197199      0.271285     -0.224188
O      15.51640      9.50939      6.76697         0.350684      0.485590      0.246315
O       3.98375      9.65479     10.78816        -0.436986      0.102943     -0.114740
O       0.04995      9.62898     10.88740         0.184223     -0.107134     -0.332266
O       7.75146      2.03235      2.56908         1.239190     -0.708222     -0.733514
O       7.78729      2.05956     14.92644         0.187404     -0.076309      0.053838
O       7.74853     13.55721      2.62083         0.423538     -0.304570     -0.877200
O       7.77925     13.37493     15.00979         0.722013      1.034083     -0.519428
O       7.77310      1.77482      6.67897        -0.540616      0.669627      0.010071
O       7.69842     13.84470      6.72816        -1.088393     -0.916852     -0.427890
O       7.73114      1.69488     10.64575         0.028745      0.281107      0.825527
O       7.88324     13.52149     10.60143        -2.151091     -0.020804      0.704524
O       7.89205      5.79767      2.86680        -0.510236     -0.168974     -1.071310
O       7.82666      5.90777     14.83611        -0.886912     -0.453036     -0.014362
O       7.77565      5.89407      6.66005         0.143612     -0.057593     -0.088255
O       7.86974      5.90488     10.73643        -1.416253     -0.225384     -0.136392
O       7.62421      9.67918      2.46640         1.217463      0.119862      0.378007
O       7.77525      9.74741     15.05968        -0.395389      0.421171     -0.387432
O       7.69962      9.81850      6.64508         0.547408     -0.320445     -0.362475
O       7.88216      9.58301     10.51013        -0.814034      0.269081      0.905089
O      11.67826      1.99006      2.32639        -1.592301      0.236643      0.679609
O      11.57510      1.73432     14.91044        -0.043202      0.875220      0.115662
O      11.66502     13.59478      2.55365        -1.266566     -0.240583     -0.700266
O      11.68242     13.71430     14.90064        -0.961784     -0.853552      0.151251
O      11.74473      1.64018      6.40297         0.013108      0.795853      0.441529
O      11.69564     13.61146      6.59371         0.842718      0.285306      0.117730
O      11.74855      2.00298     10.92800        -0.073669     -0.360978     -0.189348
O      11.75547     13.68978     10.73124         0.470478     -0.495064      0.219667
O      11.74056      5.87198      2.42691        -0.595504     -0.410827     -0.048169
O      11.68623      5.95431     14.76799        -0.971826     -0.587225      0.740630
O      11.80386      5.71481      6.62890        -0.587136     -0.076922     -0.531334
O      11.73273      5.47072     10.59731        -0.757653      0.411735      0.690949
O      11.68458      9.59111      2.62376         0.289518     -0.187040     -0.630359
O      11.57591      9.69666     14.89602         1.372282     -0.106566      0.105518
O      11.66458      9.82891      6.42123        -0.871963     -0.062828      0.042508
O      11.61638      9.58907     10.86102        -0.068418      0.116941      0.232640
O       2.09947      3.69096      2.34210        -0.747063      1.210397      0.219717
O       1.90940      3.74808     15.41681        -0.190468      1.369624     -1.195599
O       1.85467     15.48484      2.56633         0.300069      0.874912     -0.336652
O       1.78164     15.53754     14.89630         0.405180      0.245651     -0.104021
O      13.68126      3.89102      2.26665        -0.441777     -0.314201      0.112832
O      13.52391      3.85890     15.01835        -0.248085      0.391958      0.244092
O      13.51647     15.49377      2.16830         0.199712      0.587970      0.860238
O      13.59916     15.44189     15.19508        -0.137446      0.902484     -0.542142
O       1.73589      3.88169      6.60623         0.408746      0.609419      0.026006
O       1.97892      0.02148      6.41321        -0.024354      0.378247      0.926123
O      13.72449      3.72566      6.54584         0.081586      1.513831     -0.013809
O      13.75305     15.50981      6.55243        -0.303259      0.544829      0.445897
O       1.98597      3.99772     10.91578         0.258877     -1.146634     -0.568285
O       1.99984      0.08291     10.72407        -0.177013     -1.223552     -0.172181
O      13.74058      3.89628     10.85561         0.076394     -1.739205      0.194568
O      13.80650     15.60375     10.75433        -0.438167     -0.042127     -0.060014
O       1.96837      7.80642      2.59709         0.156016     -0.566433     -0.299923
O       1.80600      7.74439     14.95626         0.037065     -0.303373      0.251792
O      13.84521      7.71363      2.61124        -0.340582      0.489710     -0.251247
O      13.53413      7.77613     14.67670         0.555442      1.157650      0.399535
O       2.03348      7.78349      6.50177        -0.096953     -0.656385     -0.048512
O      13.40057      7.81219      6.43144         0.592851     -1.616372      0.555859
O       2.05707      7.75723     10.65456        -0.188963      0.078733      0.231305
O      13.63229      7.70596     10.86421         0.154503     -0.140527      0.148007
O       1.96585     11.71165      2.48381        -0.580035     -1.590860     -0.106834
O       2.07805     11.63929     14.78677        -0.663193      0.013683      0.297906
O      13.51705     11.55714      2.56561         0.451063      0.226926     -0.492973
O      13.58509     11.66967     14.92346        -0.158743     -0.516326     -0.092035
O       1.81318     11.64872      6.51167         0.097071      1.065527      0.668337
O      13.67264     11.74279      6.68052         0.374267     -0.498288     -0.062419
O       2.03673     11.54779     10.79905         0.182881      1.228762     -0.127885
O      13.66848     11.57025     10.80031        -0.390933      1.115289      0.110306
O       5.95480      3.86731      2.52226        -0.609199     -0.453963      0.242826
O       5.79855      3.91269     14.96704         0.522973      0.992701     -0.284273
O       5.83834     15.49818      2.40535         0.147328      0.235133     -0.092737
O       6.07759      0.03762     14.93410        -0.044864      0.794559      0.058162
O       5.85860      3.97158      6.62903        -0.135515     -1.133703      0.464319
O       5.65391      0.04453      6.74496        -0.381022     -0.721073     -0.175376
O       5.93153      3.82517     10.67070         0.111574      0.066977      0.226406
O       5.76371     15.41166     10.97761         0.727658      1.059800     -0.640740
O       5.91006      7.68988      2.69491        -0.861351      1.014423     -0.377670
O       5.88856      7.78431     15.03620        -0.155065     -0.726349     -0.644328
O       5.71647      7.88109      6.45589         0.677556     -1.215988      0.098474
O       5.84527      7.77813     10.89198         0.342309     -0.699004     -0.270156
O       5.76023     11.63180      2.29547         0.040926      0.557348      0.538308
O       5.77425     11.61056     14.99085        -0.213318     -0.362082      0.084368
O       5.70826     11.70011      6.71207         0.459608      0.608673     -0.665869
O       5.87507     11.55895     10.73144         0.477964      0.889436      0.270227
O       9.79141      3.96419      2.60799        -0.093669     -2.158005     -0.197405
O       9.65413      3.98147     14.75918         0.637933     -0.584299      0.332996
O       9.79173     15.58891      2.48819        -0.549715      0.273073     -0.863983
O       9.63293     15.57336     14.98776        -0.779283     -0.090800      0.239503
O       9.67151      3.80437      6.35339         0.394792      0.624382      0.429680
O       9.70299     15.59036      6.75304         0.660367      0.315059      0.246499
O       9.43990      3.82807     10.72984         0.328236     -0.558933      0.364357
O       9.74969     15.49316     10.56257        -0.001865      0.784838      0.645122
O       9.64617      7.79711      2.57627         0.138442     -0.673893      0.019205
O       9.65922      7.82361     14.86098         0.483745     -0.742993      0.171166
O       9.67304      7.85169      6.70225         0.186190     -0.691096     -0.555206
O       9.82935      7.68620     10.42811         0.113339      0.074944      0.866540
O       9.72832     11.63941      2.58627        -0.222548      0.486694     -0.159101
O       9.72036     11.70376     14.87840         0.421479      0.315004      0.225643
O       9.58850     11.79668      6.55727        -0.355449     -1.777896     -0.351311
O       9.84373     11.58715     10.62021        -0.040794      0.819624      0.523165
