  # total energy = -7881.02544814 
CRSYTAL
PRIMVEC
    15.6080000000000005    0.0000000000000000    0.0000000000000000
     0.0000000000000000   15.6080000000000005    0.0000000000000000
     0.0000000000000000    0.0000000000000000   16.6239999999999988
PRESSURE
-0.365759 -0.53856 -0.652958 -0.022583 0.000911 -0.028131
PRIMCOORD
320 1
Pb       4.04308      3.94050      4.24109        -0.256390      0.058503     -0.521740
Pb       3.93960      3.94866     16.56127        -0.149182      0.051310     -0.179771
Pb       3.94316      0.09093      4.07067        -0.356113     -0.508379      0.364345
Pb       3.83086     15.59293     16.46180        -0.038827      0.106309      0.695729
Pb      15.60397      3.86260      4.12227        -0.240431     -0.157213      0.276005
Pb      15.57521      3.77726     16.60405         0.539423      0.085360      0.039896
Pb      15.53020     15.59710      4.07906         0.171957      0.196882      0.084919
Pb      15.59054      0.03605     16.60039         0.236054     -0.110763      0.121768
Pb       3.83069      3.83021      8.25107         0.044587      0.312171     -0.020482
Pb       3.97934      0.03222      8.21079         0.062908     -0.170019     -0.364577
Pb      15.52225      3.91512      8.27214         0.408974      0.281638      0.723400
Pb       0.02619     15.57299      8.24511         0.102973     -0.345439      0.084383
Pb       3.70405      3.95132     12.65092         0.317700      0.015347     -0.769982
Pb       3.83806     15.48758     12.55303         0.081527     -0.081513     -0.814657
Pb      15.58389      3.93877     12.58635         0.115932     -0.092193     -0.862660
Pb       0.15449     15.57172     12.47216        -0.143312     -0.032160     -0.256117
Pb       3.75400      7.88153      3.99906         0.802042      0.179338      0.443928
Pb       3.90661      7.65733     16.57711        -0.091914      0.409782      0.150409
Pb       0.05747      7.87266      4.08679         0.118543      0.034774      0.179133
Pb      15.51739      7.74392     16.59861         0.312358      0.301558      0.100436
Pb       3.88139      7.75993      8.34252         0.216753     -0.211818     -0.047548
Pb      15.36058      7.72832      8.52924         0.547827     -0.151348     -0.294252
Pb       3.94152      7.83949     12.43847        -0.151949      0.057861     -0.262340
Pb      15.40791      7.73056     12.51324         0.584480      0.049766     -0.590939
Pb       3.85044     11.69974      4.07248         0.044062     -0.021222      0.107681
Pb       3.91461     11.65263     16.54670         0.031270      0.096162      0.457991
Pb      15.55971     11.75121      4.11788         0.657737     -0.128193     -0.103097
Pb      15.56161     11.79479      0.01394        -0.054262     -0.367988     -0.676107
Pb       3.84665     11.88513      8.31173         0.066524     -0.352222     -0.019082
Pb      15.59990     11.64530      8.12157         0.347382      0.458535      0.314532
Pb       3.90125     11.67081     12.28497         0.105682     -0.072148      0.480999
Pb       0.06132     11.57627     12.41699         0.203397      0.317930      0.273920
Pb       7.76504      3.68155      4.14667         0.187504      0.225747     -0.741844
Pb       7.80458      3.89602     16.54294        -0.108822     -0.018945      0.377802
Pb       7.78819     15.48592      4.14534        -0.260697      0.514026      0.398743
Pb       7.81869      0.09664     16.57859        -0.153120     -0.431802      0.434498
Pb       7.70015      3.80329      8.53687        -0.271343      0.148434     -0.712187
Pb       7.84343     15.58559      8.31689        -0.558409      0.190887     -0.771641
Pb       7.78045      3.65872     12.47777         0.203873      0.576661      1.129294
Pb       7.82745     15.57164     12.50209        -0.382862     -0.278010     -0.115784
Pb       7.90202      7.81127      4.10667        -0.898797      0.270282     -0.537204
Pb       7.69714      7.81300     16.54514        -0.516520     -0.299548      0.448405
Pb       7.91927      7.86440      8.19587        -1.077646     -0.204685      0.424985
Pb       7.91674      7.61126     12.39374        -1.126201      0.548695      0.648502
Pb       7.86324     11.70779      4.06489        -0.614405     -0.702489      0.583619
Pb       7.77156     11.76225     16.48253         0.035688      0.098808      0.464017
Pb       7.72669     11.71296      8.23252        -0.142777     -0.287042     -0.020000
Pb       7.82713     11.56949     12.40371         0.143755     -0.011001      0.187006
Pb      11.76606      3.81508      4.30400         0.117861     -0.065413     -0.625407
Pb      11.73006      4.10042      0.24087        -0.405946     -0.792675     -0.084087
Pb      11.44577     15.58029      4.16256         0.951751      0.162996     -0.152956
Pb      11.65145     15.59608     16.50081         0.246676     -0.161487      0.766229
Pb      11.65284      4.11598      8.42181        -0.136164     -0.256416     -0.240795
Pb      11.58354      0.09028      8.35090         0.299667     -0.110125     -0.252419
Pb      11.82440      3.74704     12.47425        -0.381142      0.200576      0.009644
Pb      11.56339     15.49648     12.36011         0.559854      0.196026      0.186845
Pb      11.66798      7.64248      4.02216         0.252933      0.246582      0.614671
Pb      11.68155      7.83727      0.02019         0.322515     -0.142148      0.337243
Pb      11.65794      7.81542      8.27448         0.091935      0.207041     -0.257571
Pb      11.46868      7.96650     12.49955         0.624687     -0.098632      0.120215
Pb      11.81225     11.42874      4.25055        -0.172571      0.397963     -0.289949
Pb      11.82845     11.67085     16.58961        -0.473918     -0.014799      0.005473
Pb      11.77323     11.87730      8.42361        -0.083155     -0.665652     -0.595363
Pb      11.74067     11.75204     12.39419        -0.217988     -0.408403      0.050052
Ti       1.91125      2.00874      2.15325        -0.338619     -1.236762     -0.399299
Ti       1.97946      1.95217     14.58857        -0.280249     -0.010196      0.773542
Ti       1.89291     13.65272      2.14613         0.216891      1.386804      1.576746
Ti       1.89145     13.60789     14.67898        -0.036601     -0.324334     -1.674245
Ti      13.56677      1.87898      2.20567         0.062605      0.120490      0.613589
Ti      13.69923      1.92331     14.64763        -0.174293     -0.217410     -1.045111
Ti      13.53008     13.58023      2.25184         0.082368      0.878403      0.509442
Ti      13.62382     13.60442     14.58629         0.718551      0.286944     -0.751272
Ti       1.86921      1.95239      6.33824         0.951956     -0.340223      0.706545
Ti       1.92649     13.66413      6.25240        -0.094121     -0.322238      0.289690
Ti      13.62703      1.90041      6.56389        -0.527731     -0.034458     -1.587893
Ti      13.56022     13.59150      6.37410         0.607369      0.932479     -0.491735
Ti       1.92736      1.93745     10.53956        -0.002030     -0.016404      0.472159
Ti       1.87588     13.54877     10.45652         1.138266      1.061073      0.161661
Ti      13.65198      1.90991     10.56231         0.510290      0.084484      0.490129
Ti      13.73412     13.70964     10.54650         0.057070     -0.550164     -0.212486
Ti       1.98828      5.77675      2.27922        -0.024278      0.158275     -0.828861
Ti       1.82357      5.91555     14.70618         0.998866     -0.415159     -0.508559
Ti      13.72480      5.76794      2.25583        -0.493320      0.070467      0.422118
Ti      13.59353      5.75568     14.70927         0.116378      0.063450     -0.612457
Ti       1.83690      5.88868      6.38016         0.768480     -0.166612      0.257790
Ti      13.58650      5.83386      6.45618        -0.210621      0.189885     -1.411835
Ti       1.97026      5.86294     10.54936        -0.072204      0.193810     -0.176176
Ti      13.55571      5.83543     10.63974         0.809036     -0.188284     -0.535368
Ti       1.95313      9.82419      2.06149         0.034864     -0.540330      1.177394
Ti       1.96308      9.77695     14.63766        -0.293733      0.097105     -0.125649
Ti      13.65017      9.63293      2.25701         0.444943      0.242742     -0.465835
Ti      13.64658      9.64359     14.67841        -0.023165      0.797090      0.454592
Ti       2.00384      9.70650      6.35241        -0.148129      0.253527     -0.592938
Ti      13.75511      9.66000      6.35708        -1.438530     -0.418368     -0.217455
Ti       2.01379      9.72813     10.47822         0.381827     -1.228032     -0.165990
Ti      13.69466      9.76119     10.51518        -0.071649     -0.547267     -0.434055
Ti       5.79572      1.93676      2.11408         0.598266      0.751417     -0.623582
Ti       5.89636      1.87843     14.74971        -1.381136      0.915141     -1.087446
Ti       5.77977     13.71299      2.20717        -0.219527     -0.779157     -0.153868
Ti       5.83181     13.62135     14.66916        -0.043752      0.317295     -0.579924
Ti       5.90757      2.00205      6.32612         0.315558     -1.432582      0.148033
Ti       5.79008     13.56271      6.26640         0.270361      1.910640     -0.508026
Ti       5.77597      1.86175     10.71211        -0.229630     -0.102805     -0.857870
Ti       5.87402     13.62292     10.52126        -0.625271      0.063683     -1.178464
Ti       5.81479      5.88775      2.18908         0.516477     -0.135762      0.686254
Ti       5.82193      5.87323     14.60971         0.258467     -0.421771      0.229366
Ti       5.78691      5.82035      6.33591        -0.804853      0.668323     -0.065771
Ti       5.89232      5.65033     10.67176        -1.095238      1.391366      0.987536
Ti       5.85218      9.83584      2.17138        -0.533055     -0.676518     -0.030082
Ti       5.73685      9.79233     14.66692         0.653325     -0.847144     -0.966578
Ti       5.75555      9.75852      6.36617         0.812656     -0.931453     -0.604365
Ti       6.00534      9.64239     10.58498        -2.217251     -0.162470     -1.408314
Ti       9.71256      1.85921      2.12316        -0.035012      1.562239      0.232908
Ti       9.90527      1.95416     14.70173        -0.812207      0.374714      1.364738
Ti       9.68504     13.53540      2.24528         0.744149      0.970349     -1.281184
Ti       9.77850     13.59151     14.65517        -0.681954     -0.350063      0.237651
Ti       9.78152      2.05239      6.38763        -1.248066     -0.807980     -0.140732
Ti       9.74395     13.66314      6.31855        -0.959287     -0.028269      1.365782
Ti       9.77165      1.91004     10.56267         0.030366      0.445207      0.242283
Ti       9.73326     13.59526     10.41193        -0.522582      0.261890      0.872637
Ti       9.70383      5.75995      2.21768        -0.331812     -0.796919      0.380493
Ti       9.76876      5.81873     14.79661        -0.518495     -0.855304      0.056183
Ti       9.56930      5.84351      6.25529         0.488650     -0.333528      0.850798
Ti       9.74370      5.77733     10.68418         0.175015     -0.465278     -0.873391
Ti       9.78386      9.75121      2.19192        -0.361975     -0.041226      0.535839
Ti       9.67413      9.65503     14.87598         0.226478      1.496204     -2.399942
Ti       9.74255      9.74719      6.33769         0.787837      0.615787      0.260217
Ti       9.79922      9.75708     10.46195        -0.179254      0.116195      0.579713
O       1.81929      1.96234      0.33143         0.142756     -0.088039      0.831316
O       1.96843      1.93548     12.80786        -0.040029      0.100316     -0.416867
O       1.68896     13.76968      0.40317         0.020808     -0.588063     -1.214573
O       1.86949     13.52907     12.80473         0.457421      0.371066      1.285247
O      13.62391      2.06392      0.44327         0.153105     -0.480796     -0.468050
O      13.51406      1.92790     12.82398         0.266052     -0.311382      1.410988
O      13.61514     13.74046      0.47989         0.286862     -0.921559      0.036299
O      13.62064     13.57861     12.75044        -0.295489      0.056788      1.129710
O       1.85095      1.86673      4.60745         0.054023      0.379110     -0.715656
O       1.94205     13.53473      4.50135         0.195173      0.590298     -0.257852
O      13.61365      1.95703      4.74825        -0.095324      0.173642      0.492832
O      13.41317     13.68971      4.60681         0.643031     -0.457313      0.137025
O       1.97165      1.84544      8.77460        -0.053204      0.276733     -0.200464
O       2.00314     13.51201      8.65614        -0.340219      0.286198      0.103635
O      13.63182      1.87042      8.79118         0.178773      0.278283     -0.965349
O      13.76565     13.47286      8.75337        -0.333566     -0.040963     -0.265736
O       1.97184      5.83039      0.48449         0.049941      0.109665     -0.487119
O       1.91024      5.79017     12.90440        -0.312485      0.113018      0.861897
O      13.58739      5.81234      0.44751         0.020282     -0.180786     -0.420748
O      13.79262      5.77990     12.90742        -0.586603      0.121041     -0.150578
O       1.77202      5.68108      4.58454         0.256212      0.677664      0.059510
O      13.61050      5.76050      4.63212         0.083463      0.200076      0.383313
O       2.03056      5.94259      8.75282        -0.053788     -0.155569      0.038274
O      13.58880      5.87985      8.80118        -0.150981      0.120141      0.378884
O       2.10970      9.73559      0.33022        -0.650857      0.295244     -0.489077
O       2.08572      9.74258     12.85762        -0.801301      0.310126      0.090438
O      13.53508      9.61801      0.46794         0.369423      0.053307     -0.536182
O      13.57606      9.63435     12.92279         0.266158      0.320690     -0.159140
O       1.78332      9.71433      4.50709         0.266474      0.138469      1.029274
O      13.78976      9.56242      4.49214        -0.397758      0.715537      0.788411
O       2.11679      9.71204      8.66096        -0.385417     -0.023259      0.411689
O      13.54746      9.66790      8.68261         0.599892      0.379549      1.034136
O       5.71882      1.87205      0.29337        -0.005111      0.377309      0.926733
O       5.94670      1.77553     12.93201        -0.387665      0.005568     -0.056216
O       5.88469     13.62364      0.44728         0.314974      0.098559     -0.944640
O       5.72441     13.73657     12.87008         0.118372     -0.274240      0.681232
O       5.94150      2.07237      4.52044        -0.254702     -0.036035     -0.384625
O       5.64684     13.66378      4.46560         0.620000     -0.563313     -0.021392
O       6.02811      2.05147      8.87713        -0.313446     -0.446505      0.317304
O       5.81134     13.72217      8.66111         0.092220     -0.151331      0.386311
O       5.64350      5.92394      0.44150         0.229203     -0.285783     -1.170898
O       6.01844      5.88613     12.85436        -0.616793      0.006255      0.626010
O       5.66776      5.69662      4.53784         0.763644      0.166590      0.421145
O       5.74375      5.64341      8.95107         0.304066     -0.320935     -1.374593
O       5.80484      9.82234      0.36665         0.139599     -0.201198     -0.205158
O       5.88815      9.82037     12.85896         0.258069      0.062481      0.165361
O       5.70897      9.79627      4.59551         0.564274     -0.117209     -0.577936
O       5.90930      9.65139      8.78558         0.029137      0.120265     -0.646325
O       9.86540      2.03561      0.36914        -0.400408     -0.529152     -0.455976
O       9.91860      1.72775     12.95938        -0.326109      0.189908     -0.934914
O       9.68691     13.63799      0.44006        -0.000103     -0.102496      0.420685
O       9.79039     13.71388     12.85788         0.332303     -0.201555      0.237198
O       9.60397      1.93135      4.59656         0.414726     -0.026066      0.027593
O       9.71530     13.84750      4.56482         0.419641     -0.698719     -0.754025
O       9.74029      2.02800      8.78446        -0.389000     -0.129632      0.014659
O       9.65065     13.65928      8.66868         0.057802     -0.248050     -0.807934
O       9.93135      5.75165      0.44974        -0.466157      0.356563     -0.732605
O       9.85283      5.96890     13.04966        -0.529536      0.000804     -0.861072
O       9.48894      5.95903      4.48445         0.479654     -0.181534      0.123988
O       9.74119      5.72435      8.92091        -0.111358      0.038301     -0.363369
O       9.73016      9.75219      0.43875         0.089628      0.114913     -1.564570
O       9.76646      9.81605     12.94326        -0.023390     -0.648403      0.928369
O       9.78955      9.92075      4.55583        -0.191035     -0.818025     -0.484487
O       9.88819      9.77787      8.72126        -0.491733     -0.278771     -0.319235
O       3.82121      1.79236      2.45737         0.574727      0.693258     -0.106054
O       3.81921      1.83039     14.85680         0.573468      0.344521      0.326352
O       3.88572     13.74182      2.35164        -0.548587      0.251234      0.198314
O       3.83783     13.58584     15.15510         0.710723      0.751062     -0.822281
O      15.53539      2.11838      2.53262        -0.397369     -0.651510     -0.233625
O       0.04452      1.96410     14.85675        -1.464951     -0.543482      0.310808
O       0.00890     13.71523      2.71453        -1.247868     -1.238813     -0.728216
O      15.60404     13.43303     14.80955        -0.782565      0.465869      0.703325
O       4.02249      1.88524      6.58785        -1.508143      0.530640      0.461968
O       3.90410     13.59920      6.56993        -0.337885     -0.168201      0.452984
O       0.01763      2.02422      6.81444        -0.821231     -0.810340     -0.320559
O      15.57432     13.70965      6.57025        -0.357918     -0.510542      0.084824
O       3.90176      2.02880     10.83423        -0.400536     -0.510803      0.117865
O       3.79949     13.61829     10.84007         0.534792     -0.021784     -0.262423
O      15.50740      1.93640     11.01972         1.090810      0.012293     -0.643448
O       0.04399     13.69559     10.82710        -0.734386     -0.507080     -0.026082
O       3.90856      5.69600      2.52697        -1.316785      0.428494      0.326593
O       3.86055      5.92588     14.92414        -0.292829     -0.404100      0.011616
O      15.58215      5.66721      2.38927        -0.196130      0.475350      0.444663
O      15.52753      5.72151     14.96182         0.903398      0.882021      0.610052
O       3.83457      5.78137      6.69353         0.022932     -0.642652     -0.055723
O      15.54041      5.98755      6.88847         0.535409     -0.544282     -0.524761
O       3.92330      5.95469     11.01631         0.202193     -1.216460     -0.133082
O       0.04098      5.77845     10.77809        -0.912572      0.879359      0.385708
O       3.81422      9.84223      2.46327         0.134965     -0.596998      0.316007
O       3.86739      9.77180     14.81980         0.947828     -0.183805      0.658643
O      15.60010      9.78579      2.35929        -0.042133     -0.234565      0.094149
O      15.59590      9.78270     15.02442        -0.374362     -0.102940     -0.042992
O       3.92843      9.76800      6.48975        -1.517987      0.285004      0.742043
O      15.60440      9.63409      6.75468         0.064675      0.185146     -0.255480
O       4.01424      9.76525     10.87362        -1.128336     -0.106953     -0.247940
O       0.02528      9.64028     10.91504        -0.170656     -0.280402     -0.515414
O       7.76402      2.00826      2.30848        -0.403590     -0.281265      0.311702
O       7.68329      2.00838     15.01084         1.885492     -0.160048      0.257475
O       7.79381     13.47033      2.54809        -0.268209      0.760501      0.035173
O       7.79559     13.56166     14.81652        -0.518938      0.380664      0.471960
O       7.82385      1.78912      6.63556        -0.108983      0.704611      0.559821
O       7.82092     13.73266      6.40306        -0.248751     -0.276649      0.865158
O       7.84824      1.83206     11.05851         0.565181      0.103503     -0.895625
O       7.75247     13.69401     10.75346         0.907647     -0.113870      0.325177
O       7.76837      5.88526      2.36220        -0.050874      0.245452      0.268828
O       7.74981      5.80111     15.10731         0.452361      0.428467     -0.030624
O       7.66993      5.83543      6.77520         1.260919      0.412790     -0.396069
O       7.82430      5.61438     11.02305         0.601715      0.590014     -0.503731
O       7.74734      9.82191      2.50987         0.215148     -0.145255      0.077421
O       7.77304      9.78013     14.92743         0.464917     -0.067690      0.599347
O       7.80629      9.67094      6.59150        -0.004761     -0.584176      0.427474
O       7.82056      9.78588     10.72376         1.846156      0.276605      0.612902
O      11.60018      1.88004      2.55579         1.235402      0.067547      0.144700
O      11.72003      1.91044     14.98415         0.833666     -0.123923     -0.007869
O      11.67285     13.62684      2.59880        -0.305550      0.179259     -0.371692
O      11.67427     13.64666     15.01519         0.313866      0.249869     -0.353246
O      11.63895      2.08916      6.72868         0.803207     -0.416489      0.198424
O      11.64450     13.67549      6.74159         0.241658     -0.623784      0.216753
O      11.69989      1.96638     10.79045        -0.240199     -0.680609      0.319549
O      11.70974     13.55532     10.64411         0.168524     -0.211854      0.311642
O      11.60713      5.83445      2.57315         0.250215      0.084095      0.096480
O      11.70451      5.77263     14.99365         0.376078      0.168754      0.236300
O      11.64110      5.84969      6.69499        -0.245640     -0.266433     -0.057528
O      11.67548      5.77481     10.89426         0.323791      0.220991      0.232511
O      11.71539      9.62225      2.47277        -0.449128      0.431167      0.493578
O      11.68860      9.70690     15.03448         0.025846     -0.197031      0.163022
O      11.69019      9.67400      6.65195         0.056105      0.283533     -0.420295
O      11.72796      9.70165     10.87650        -0.355687      0.562921     -0.184687
O       1.89678      3.88033      2.50454         0.412157     -0.387780      0.148368
O       1.89861      3.85442     15.00483         0.479386      0.748957     -0.386940
O       1.75157      0.01866      2.45253         0.318371      0.429304      0.216134
O       1.89386     15.55104     14.86484        -0.157988     -0.055777      0.109358
O      13.45933      3.90175      2.62063         0.125695     -0.470957     -0.274835
O      13.75303      3.81220     14.82911        -0.639241      0.283098      0.512275
O      13.67446     15.58028      2.53260        -0.165635      0.649547     -0.184942
O      13.71804     15.48452     15.05629        -0.205610      0.879561     -0.629119
O       1.87698      3.87527      6.70107         0.118075      0.022824      0.059528
O       1.96524     15.55496      6.66081        -0.026324      0.676405      0.071016
O      13.61127      3.95697      6.79167         0.344894     -0.695318      0.217992
O      13.58025     15.55588      6.77053         0.065049      0.764404      0.158245
O       1.91524      3.93408     10.80482         0.432878     -0.762594      0.231650
O       1.87400     15.56349     10.79982         0.273859      0.518926      0.225352
O      13.62896      3.85756     10.81653        -0.156929      0.644039      0.275166
O      13.72102     15.53608     10.73601        -0.488241      0.193226      0.235604
O       1.90369      7.80523      2.50480        -0.023103     -0.400839     -0.215317
O       1.98827      7.84203     14.99775        -0.964652     -0.984345     -0.073720
O      13.60173      7.69500      2.53434         0.475193      0.062190     -0.060525
O      13.68217      7.74047     14.95700        -0.012425     -0.050878      0.235497
O       2.06398      7.79956      6.53989        -0.267999     -0.187074      0.055875
O      13.59590      7.78384      6.71155         0.144900      0.008388      0.188586
O       2.04876      7.81932     10.87485        -0.304094      0.028851     -0.122996
O      13.57712      7.79339     10.92088         0.522152     -0.562087     -0.131098
O       1.98686     11.78772      2.47441        -0.678749     -1.002976     -0.526218
O       2.05601     11.69889     14.93413        -0.598924     -0.283427      0.525170
O      13.58084     11.61082      2.47450         0.180775      0.635724      0.276945
O      13.60998     11.72431     15.01218        -0.218970     -0.613389      0.146730
O       1.92156     11.71581      6.54244        -0.217820     -0.751146      0.481307
O      13.60183     11.62914      6.57660         0.240455      0.221984      0.055297
O       1.88017     11.61413     10.66582         0.034309      0.391919      0.543259
O      13.88461     11.59077     10.89689        -1.248779      0.382861     -0.443952
O       5.83568      3.88563      2.40855        -0.343953     -0.782971      0.165392
O       5.70041      3.95147     14.91778         0.132741     -0.511862      0.230847
O       5.94042      0.01835      2.52482        -0.235210     -0.084454     -0.078221
O       5.82477      0.02972     15.04111         0.043664     -2.003836     -0.110234
O       5.90204      3.85436      6.72639        -0.093404      0.320488     -0.012557
O       5.78799     15.56268      6.42020         0.182680      0.036655      0.906376
O       5.91333      3.76691     11.14045        -0.332610      0.555831     -0.619950
O       5.82414     15.55685     10.83567        -0.230249      0.432344      0.267599
O       5.66314      7.79362      2.45552         0.445000      0.436568      0.273332
O       5.88918      7.79326     14.96415        -0.263096      0.618069      0.156686
O       5.66639      7.70120      6.64343         0.804353      0.446683      0.140336
O       5.95529      7.74397     10.80911         0.350524     -0.079880      0.470152
O       5.69003     11.66772      2.41924         0.403362      0.795295      0.465307
O       5.78907     11.69597     14.90268         0.176908      0.568795      0.323375
O       5.93841     11.66669      6.66369        -0.158927      0.396390      0.055610
O       5.88753     11.73898     10.62284        -0.015486     -0.070497      0.978999
O       9.73301      3.83047      2.41730        -0.056970      1.189076      0.564064
O       9.68088      3.88893     15.02913         0.324111     -0.176247     -0.312072
O       9.65812      0.03334      2.52312        -0.095169     -1.442823     -0.160193
O       9.65735      0.06296     15.17732         0.393286     -0.750800     -0.993764
O       9.67042      3.95542      6.52083        -0.113002      0.116500      0.360518
O       9.81286      0.04585      6.80608         0.080866     -0.496261     -0.399454
O       9.82190      3.82735     10.98764        -0.360070     -0.278046      0.011851
O       9.81053     15.51461     10.78238        -0.010414      0.644769     -0.145454
O       9.66933      7.90404      2.52726         0.068516     -1.033516      0.071242
O       9.69991      7.76110     15.16567         0.154937      0.447677     -0.341314
O       9.81026      7.71845      6.74627        -0.851789      0.278421     -0.477324
O       9.64893      7.79217     10.81374         0.532998     -0.041761      0.070102
O       9.77870     11.68200      2.47225         0.163068     -0.068460      0.501289
O       9.76859     11.71241     14.92910         0.045355     -0.048061      0.444757
O       9.62414     11.62271      6.64432         0.575593      1.398020     -0.017103
O       9.76492     11.70510     10.75008        -0.072190     -0.365018      0.276011
