  # total energy = -7880.79026471 
CRSYTAL
PRIMVEC
    15.6080000000000005    0.0000000000000000    0.0000000000000000
     0.0000000000000000   15.6080000000000005    0.0000000000000000
     0.0000000000000000    0.0000000000000000   16.6239999999999988
PRESSURE
-0.310821 -0.350763 -0.687989 -0.135801 -0.239356 0.051432
PRIMCOORD
320 1
Pb       3.98818      3.98107      4.16872        -0.091466     -0.311113     -0.527506
Pb       4.05591      4.08596      0.12379        -0.271207     -0.574913     -0.344392
Pb       3.88235      0.02426      4.03093        -0.075648     -0.237597      0.376332
Pb       3.77744     15.57255     16.61651         0.398073      0.177917     -0.393051
Pb       0.08373      3.84240      4.13150        -0.215838      0.043122      0.171340
Pb      15.46561      3.83553      0.01175         0.611649     -0.168751     -0.426372
Pb      15.53179     15.58204      3.99965         0.001048     -0.045019      0.617633
Pb      15.49376     15.55704     16.59406        -0.124964     -0.063207     -0.404515
Pb       3.69214      3.81492      8.34148         0.308422      0.279465     -0.355934
Pb       3.89080      0.06278      8.33341         0.303644     -0.438271     -0.615528
Pb      15.56066      3.80082      8.26476        -0.082140      0.349243      0.171332
Pb       0.13384     15.57102      8.19653        -0.424950      0.211754      0.324231
Pb       3.92495      3.95304     12.35643        -0.145539     -0.484946      0.697294
Pb       3.84076     15.41799     12.27770         0.128241      0.809989      0.966554
Pb      15.58494      3.75555     12.42713        -0.215419      0.669391      0.146215
Pb      15.53164      0.27827     12.55725         0.411220     -1.157765      0.325588
Pb       3.81293      7.83788      4.32779         0.298052      0.142956     -0.658966
Pb       3.81359      7.74021      0.02104         0.410492      0.075393     -0.369915
Pb       0.23091      7.89043      4.21663        -1.113852     -0.497365     -0.001227
Pb       0.02790      7.74084      0.02956        -0.307162      0.101772     -0.283694
Pb       4.08815      7.70523      8.06640        -1.029884      0.185803      1.058747
Pb      15.44262      7.77045      8.51487        -0.072273     -0.217855     -0.664090
Pb       3.91367      7.87892     12.45247         0.316337     -0.225154     -0.082636
Pb       0.00513      7.93653     12.58459        -0.234230     -0.486217     -0.584198
Pb       3.85141     11.67202      4.08817        -0.201452      0.135766     -0.027332
Pb       3.91984     11.59364     16.44024         0.082964      0.347687      0.722539
Pb      15.58944     11.65234      4.08595         0.257563      0.107019      0.154827
Pb      15.54954     11.80463     16.55416         0.041947     -0.078013     -0.075204
Pb       3.82472     11.63224      8.09037         0.207853      0.184879      0.578151
Pb      15.55579     11.62766      8.33501         0.451883      0.065976     -0.072100
Pb       4.04778     11.69682     12.32984        -0.534077     -0.098413     -0.237799
Pb       0.16709     11.52736     12.30352         0.107819      0.981924      0.277780
Pb       7.87605      3.76880      4.19617        -0.743693      0.114863     -0.172656
Pb       7.87280      4.00348      0.11060        -0.635338     -0.377407     -0.125710
Pb       7.80854     15.45430      3.98806        -0.081962      0.316471      0.872212
Pb       7.91301      0.16169      0.09094        -0.276149     -0.504910     -0.109396
Pb       7.59700      3.98942      8.31847         0.582396     -0.809090      0.249826
Pb       7.85228     15.51018      8.35920        -0.611340      0.482669     -0.748936
Pb       7.66826      3.82088     12.39945         0.388510     -0.256374      0.058077
Pb       7.67566     15.56382     12.55011         0.300797      0.140559     -0.685710
Pb       7.70952      7.86164      4.17053         0.130710     -0.322551     -0.474654
Pb       7.88329      8.00820     16.59830        -1.000671     -0.768051      0.180346
Pb       7.79570      7.77275      8.26402         0.436788     -0.124571     -0.058131
Pb       7.87769      7.57887     12.30524        -0.745340      0.683094      0.911034
Pb       7.98723     11.67452      4.32099        -0.432433      0.353810     -0.711093
Pb       7.68878     11.66129      0.04657        -0.007121      0.139993     -0.426710
Pb       7.60863     11.73895      8.09507         0.615722      0.172913      0.704925
Pb       7.69053     11.49579     12.41106         0.244794      0.405390     -0.193152
Pb      11.75060      3.95669      4.32217         0.103169     -0.578217     -0.359536
Pb      11.81365      4.07914      0.09062        -0.292722     -0.522383     -0.409810
Pb      11.48400     15.50430      4.14454         0.867642     -0.041864     -0.323978
Pb      11.55973     15.53781      0.09509         0.658109     -0.046105     -0.287326
Pb      11.78259      4.05939      8.35077        -0.257450     -0.385159      0.304856
Pb      11.64055      0.10626      8.23656         0.310582      0.034059      0.144589
Pb      11.86521      3.82092     12.59705        -0.676202      0.156216     -0.742317
Pb      11.91546     15.53083     12.41559        -1.056521      0.342920      0.363864
Pb      11.72064      7.45778      4.00575        -0.138124      1.203766      0.853496
Pb      11.36931      7.77470      0.00870         1.500858     -0.080766     -0.319075
Pb      11.54637      7.95575      8.18869         0.546331     -0.356935      0.457118
Pb      11.56254      7.85246     12.64118        -0.100108     -0.244003     -0.365114
Pb      11.57189     11.33224      4.25605         0.679575      1.343206      0.095115
Pb      11.79950     11.78371     16.52798        -0.235149      0.108815     -0.001529
Pb      12.05565     11.92553      8.36740        -1.643739     -0.921369      0.532967
Pb      11.64605     11.85576     12.41183        -0.350614     -0.109904     -0.055610
Ti       1.99850      2.03240      2.15093        -0.056896     -0.488290      1.491262
Ti       1.96228      2.00960     14.66165         0.579852      0.041172     -0.388764
Ti       1.95078     13.68795      2.15067         0.210938     -0.278674     -0.199885
Ti       2.01868     13.64068     14.57702        -0.962595      0.393733     -0.884638
Ti      13.63565      1.99689      2.31442        -0.381567     -1.501917     -0.227711
Ti      13.57068      1.95106     14.73114         0.244240     -1.140958      0.159370
Ti      13.60419     13.57661      2.26415        -0.386795      1.341634     -0.460448
Ti      13.66793     13.64155     14.56975        -0.120720      0.476861      0.017895
Ti       1.96143      1.88773      6.27585        -0.220622     -0.363735      0.612231
Ti       1.89622     13.51463      6.39073         0.631421      0.344243      0.020647
Ti      13.63748      1.92097      6.37455         0.087560      0.264510     -0.867888
Ti      13.70567     13.68854      6.36859         0.137398     -0.110513     -0.742691
Ti       1.90189      1.91973     10.56427         0.793996     -0.337678      0.596005
Ti       1.91994     13.65471     10.42168         0.120029     -0.905887      0.251919
Ti      13.63272      2.00070     10.47102        -0.898323     -0.197639     -0.300104
Ti      13.72945     13.67171     10.54816         0.348857      0.324143     -0.460957
Ti       1.89497      5.86643      2.21477         0.077361     -0.349118      0.250587
Ti       1.95686      5.87457     14.53252         0.233618     -0.221627      1.714229
Ti      13.67004      5.82293      2.20388         0.755892      0.194654      0.165968
Ti      13.69596      5.82426     14.66204        -0.689061      1.056990      0.528383
Ti       1.79078      5.77293      6.44736         0.557581     -0.009819      0.337610
Ti      13.61049      5.84779      6.38647         0.334644      0.787077      0.773524
Ti       1.77698      5.79480     10.61688        -0.181310      0.690038     -1.551205
Ti      13.49841      5.99126     10.58614         0.238952     -0.766616      0.226983
Ti       1.95080      9.71008      2.14165        -0.168236      0.475829      1.491106
Ti       1.89910      9.81758     14.70055         0.348090     -0.852792     -0.058680
Ti      13.62969      9.69245      2.20554         0.745656     -0.388261     -0.742378
Ti      13.63852      9.69076     14.73339         0.066627     -0.413156      1.157730
Ti       1.87145      9.58122      6.44650         0.324707      0.714003     -0.290148
Ti      13.62002      9.77358      6.34411         0.099347     -1.139821     -0.529766
Ti       1.96016      9.64791     10.38307         0.462713      0.501482     -0.006549
Ti      13.56029      9.80346     10.60171         0.063018     -0.465691     -1.402792
Ti       5.84554      1.87313      2.22729        -0.188551      0.742216     -0.160109
Ti       5.82917      1.86292     14.78137        -1.206052      0.174900      0.039066
Ti       5.82886     13.56363      2.22373        -0.127515     -0.187191      1.351117
Ti       5.82091     13.57015     14.61572        -0.066160      0.797736     -0.272970
Ti       5.78534      1.90988      6.28165         0.815810     -0.764413     -0.089966
Ti       5.80104     13.59955      6.19532        -0.295826      1.548118      1.109304
Ti       5.82018      1.93024     10.46452        -0.127441     -0.697490      1.113730
Ti       5.86703     13.60956     10.41949        -0.747153     -0.287929     -1.377493
Ti       5.78535      5.90008      2.19553         0.106537     -0.585533     -0.137411
Ti       5.85032      5.81452     14.72110        -0.648127      0.294495     -0.706391
Ti       5.82264      5.69385      6.30956        -0.417344      0.573620      0.205576
Ti       5.68793      5.80271     10.45077         0.167120      0.353395      0.667615
Ti       5.84799      9.74456      2.28498        -0.220393     -0.059107     -0.540794
Ti       5.86063      9.66421     14.63699        -0.478157     -0.481719      0.203740
Ti       5.90508      9.68420      6.31564        -1.120179     -0.417779     -1.532300
Ti       5.83646      9.64154     10.35963         0.156539      0.418663      0.569004
Ti       9.76513      1.93289      2.27587         0.028062     -0.340424      0.156559
Ti       9.76379      1.92047     14.71431         0.532089     -0.192253     -0.644537
Ti       9.73095     13.52501      2.18890         0.627674      0.800895     -0.042494
Ti       9.68122     13.64401     14.68763         0.359541     -0.122594     -0.236897
Ti       9.66245      2.06110      6.45325        -0.615509     -0.610731     -0.633760
Ti       9.78922     13.67111      6.41263        -0.465265     -0.517653     -1.815203
Ti       9.78023      1.88183     10.56256        -0.238641      0.705008      0.455927
Ti       9.69098     13.70596     10.55581         0.053306     -0.206311      0.564077
Ti       9.64744      5.79212      2.20213        -0.652663      0.359712      0.493242
Ti       9.67466      5.66532     14.76160         0.670536      1.713767     -0.112945
Ti       9.69819      5.78172      6.39400         0.166841      0.779853     -0.253453
Ti       9.67180      5.74189     10.58436         0.859056     -0.465027     -0.963743
Ti       9.85572      9.74180      2.18491        -1.971357     -0.855700      0.350396
Ti       9.78150      9.78657     14.67785        -0.378821      0.356787     -0.933514
Ti       9.71935      9.78678      6.38191         0.928185     -0.290228      0.327106
Ti       9.74621      9.79003     10.51653        -0.163022     -0.269986     -0.601647
O       1.92919      2.09720      0.43229        -0.320134     -0.362047     -1.476363
O       1.95533      1.84232     12.82800        -0.490378      0.108538      0.500969
O       2.08650     13.61204      0.35498        -0.481473     -0.025409      0.932079
O       1.86464     13.63001     12.77071         0.303652     -0.299348      0.170804
O      13.77061      1.93745      0.46177        -0.431397      0.324101      0.184498
O      13.72015      1.95498     12.87770        -0.549208      0.168317      0.201960
O      13.62122     13.80550      0.41214        -0.025555     -0.809288      0.939287
O      13.62907     13.64577     12.74255         0.013227     -0.446059      0.462469
O       1.91704      1.90426      4.54675         0.021621      0.243932     -0.574650
O       1.81769     13.55676      4.65783        -0.044997     -0.027140     -1.098039
O      13.65008      1.88518      4.56854        -0.379620      0.525709      1.171217
O      13.84523     13.59787      4.59972        -0.314738     -0.139123      0.004019
O       1.96075      1.83315      8.79659         0.084619      0.391588     -0.473172
O       2.00029     13.51340      8.62082         0.193629      0.689455      0.600366
O      13.54537      1.95769      8.69700         0.255326     -0.306149     -0.377674
O      13.54727     13.65694      8.70998         0.345121      0.348432      0.274018
O       1.81812      5.91255      0.45495         0.130254     -0.317999     -0.495077
O       2.06844      5.95920     12.80545        -0.229385     -0.031491     -1.041427
O      13.71398      5.63661      0.40590         0.186129     -0.026241      0.279174
O      13.42072      5.82358     12.91664         0.244167     -0.078700     -0.602129
O       1.90164      5.84483      4.69083        -0.010747     -0.090016     -0.742517
O      13.51598      5.88772      4.62821        -0.050991     -0.421910     -0.677077
O       1.59033      5.72214      8.78692         0.504263     -0.018559      0.596778
O      13.56705      5.94857      8.77134         0.264445      0.000942      0.818784
O       1.93301      9.68379      0.41316         0.013393      0.122331     -0.990037
O       1.85463      9.76207     12.88100        -0.156968     -0.202142      0.065196
O      13.47922      9.71220      0.43919         0.509247      0.060873      0.375827
O      13.68476      9.68439     12.97894         0.005564      0.172612     -1.380396
O       1.95203      9.60680      4.59884        -0.336115     -0.106683      0.423072
O      13.57300      9.72818      4.49296        -0.028920      0.235940      1.073171
O       1.96283      9.69951      8.60579        -0.179289     -0.325332      0.598061
O      13.57300      9.75047      8.77620         0.302463     -0.027511      0.139277
O       5.82914      1.86689      0.42872         0.246784      0.076802      0.200464
O       5.75755      1.82513     13.00580         0.716715      0.248839     -0.169597
O       5.65741     13.38299      0.51975         0.415677      0.237193     -1.882630
O       5.73578     13.52750     12.77730         0.800100      0.363948      1.127096
O       5.78469      2.03980      4.49376         0.090340     -0.293783      0.105060
O       5.86019     13.71511      4.44582         0.121784     -0.598344      0.597642
O       5.77314      1.96862      8.74545        -0.174897     -0.110598     -1.340540
O       5.75101     13.54676      8.54442         0.587368     -0.048178      0.997293
O       5.70707      5.89854      0.36922         0.162957     -0.499589      0.098772
O       5.68411      5.87074     12.88001         0.338259     -0.360791      0.324724
O       5.75189      5.81859      4.54199         0.003333     -0.011125     -0.180909
O       5.83834      5.79903      8.68456         0.207141      0.008232     -0.528493
O       5.85887      9.77054      0.42840         0.048060      0.116376      0.185385
O       5.75609      9.63296     12.85538         0.233251      0.427224      0.060065
O       5.82835      9.51149      4.44260        -0.051560      0.399843      1.322626
O       5.81741      9.62438      8.56759         0.498325      0.279821     -0.288901
O       9.87377      1.80587      0.51706        -0.750142      0.168912     -0.837271
O       9.74720      2.04320     12.93023        -0.227928     -0.198226      0.634125
O       9.93397     13.63426      0.38039        -0.612269      0.033874      0.585954
O       9.67421     13.55447     12.88390        -0.017468      0.158004      0.173948
O       9.54903      2.07528      4.60627         0.617671     -0.049166      0.944429
O       9.71339     13.53208      4.47881         0.094198      0.043644      1.604583
O       9.53837      1.75574      8.79318         0.621158     -0.136921     -0.732940
O       9.66376     13.70449      8.76512        -0.024073      0.230830     -0.503589
O       9.60738      5.86177      0.41722         0.758475     -0.124209     -0.145363
O       9.63130      5.77208     13.01793         0.292967     -0.243463     -1.307647
O       9.73938      5.68255      4.58542         0.143067      0.027919     -0.059819
O       9.58418      5.86109      8.78836         0.239470      0.164485      0.020558
O       9.65432      9.63285      0.38549         0.229197      0.407937      0.085272
O       9.79123      9.80489     12.85432        -0.026493     -0.026452      0.804186
O       9.80611      9.81236      4.55564        -0.490891     -0.249706     -0.331261
O       9.68086      9.65029      8.70486        -0.139444     -0.204137      0.365170
O       3.88456      2.05116      2.51430        -0.217087     -0.504998     -0.104445
O       3.89255      1.89675     15.09659        -0.928548      0.278590     -0.187769
O       3.92930     13.63666      2.60089        -1.414632     -0.393986      0.062188
O       3.89991     13.53921     14.80702         0.110596     -0.396088      0.333118
O      15.49347      1.90529      2.60129         1.222703      0.166187     -0.423947
O      15.56916      1.93338     14.90644         0.317335     -0.158782      0.380510
O      15.57606     13.83375      2.41035         0.670292     -0.762060     -0.188175
O      15.53528     13.71154     14.94706         0.274528     -0.645856      0.313157
O       3.89469      1.85734      6.62730        -0.632319      0.110376      0.405546
O       3.86193     13.48506      6.50219         0.489817      0.313361      0.107470
O      15.59657      2.00741      6.64922        -0.568001     -0.392992      0.128456
O       0.02664     13.60188      6.77570        -0.886134     -0.004776      0.151670
O       3.91056      1.90149     10.88134        -0.856335      0.133543     -0.432781
O       3.93823     13.61177     10.80130        -1.334833     -0.228127     -0.429077
O      15.50897      1.84830     10.79061         1.179103      0.492449      0.121535
O       0.02862     13.53686     10.60210        -0.652657      0.262513      0.144443
O       3.77065      5.73888      2.46214         0.546477      0.285625      0.153898
O       3.85860      5.85862     15.01845        -0.172951     -0.318471      0.120862
O      15.53668      5.95228      2.61946         0.072606     -0.873812     -0.180645
O      15.60138      5.84828     14.84932         0.464418     -0.147456      0.003880
O       3.88335      5.82326      6.76125        -0.182658     -0.348753     -0.415739
O      15.50312      5.81073      6.66540         0.257080     -0.377174      0.144624
O       3.80562      5.77421     10.67351        -0.022440      0.076636      0.142004
O      15.47904      5.85009     11.07363         0.156740      0.090431     -0.375157
O       3.81215      9.79831      2.51328         0.399583     -0.382606      0.041336
O       3.82482      9.72891     14.93332         0.550933      0.214452     -0.005223
O      15.58684      9.52833      2.46909        -0.420333      0.625334      0.015785
O      15.53700      9.69427     15.13790         1.143726      0.081083     -0.423914
O       3.85348      9.58183      6.52375         0.502614      0.064061      0.217921
O      15.55690      9.81114      6.63003        -0.340720     -0.496968      0.086863
O       3.97752      9.71285     10.72866        -1.384640     -0.167436      0.104269
O      15.59707      9.78573     10.71776         0.051839     -0.495594      0.284781
O       7.75600      1.78460      2.49719        -0.253859      0.350085     -0.170132
O       7.86499      1.87839     15.08331        -0.950190      0.068100     -0.052699
O       7.80610     13.63336      2.45459         0.052337     -0.175528     -0.326175
O       7.79177     13.65100     15.03691        -0.751544      0.321565     -0.153980
O       7.68235      1.98285      6.69185         0.808344      0.352783      0.098655
O       7.83924     13.52673      6.51027        -0.778441     -0.125495      0.484199
O       7.69614      2.02779     10.86172         0.232294     -0.726302      0.334933
O       7.68795     13.70139     10.79897         1.425680     -0.158515      0.155552
O       7.72778      5.90632      2.34059         0.608532     -0.166968      0.592383
O       7.79816      5.76097     15.03746        -0.610563     -0.057814      0.041240
O       7.76232      5.63496      6.58923        -0.315635      0.864419      0.154999
O       7.75667      5.75578     10.80238        -0.432881     -0.141590      0.392817
O       7.69728      9.58075      2.58238         1.270362      0.334179     -0.338694
O       7.77004      9.73409     14.96351         0.246541      0.164619     -0.121811
O       7.82316      9.67343      6.58815        -0.877304      0.121029     -0.078576
O       7.75179      9.72874     10.83117         0.124157     -0.494827     -0.256260
O      11.59742      1.86584      2.61902         0.806537      0.690637      0.194572
O      11.67308      1.90073     15.04352         0.692143      0.310053     -0.195000
O      11.65886     13.58310      2.58058         0.604634     -0.153412     -0.180044
O      11.73549     13.65415     14.92003        -0.047198     -0.649368     -0.124140
O      11.60641      2.12985      6.73221        -0.025908     -1.166326     -0.265759
O      11.69531     13.59359      6.65369        -0.136036      0.521912     -0.125374
O      11.72492      1.83479     10.79843        -0.206240      0.031721      0.106394
O      11.59640     13.72477     10.81022         0.304158     -0.585440      0.130447
O      11.69887      5.65881      2.49393        -0.948350     -0.039850     -0.164172
O      11.74570      5.89183     15.11086        -1.019505     -0.469782      0.126255
O      11.71805      5.80486      6.70880        -1.447063      0.184833     -0.063474
O      11.57627      5.69881     10.86952         1.182152      0.628494      0.060701
O      11.64394      9.73497      2.43810         0.792070      0.234369      0.282622
O      11.68996      9.74015     14.99611        -0.546326     -0.054651     -0.083516
O      11.67284      9.75632      6.66678         0.209022      0.169716     -0.277847
O      11.68582      9.75021     10.75869        -0.605269     -0.127937      0.637843
O       1.86437      3.89105      2.53995        -0.551206      0.209740      0.112055
O       1.85813      3.86611     14.65597         0.272198      0.422965      0.591925
O       2.05804      0.02540      2.45306        -0.350168     -0.317027     -0.183443
O       1.94648     15.45534     14.92119         0.111380      1.547878      0.456832
O      13.64387      3.84257      2.69837        -0.098067      0.514142     -0.455044
O      13.54319      3.85690     14.94716         0.374938      0.147287      0.252694
O      13.53446     15.56150      2.69921        -0.060733      0.084424     -0.502013
O      13.61759     15.58612     14.84988         0.223248      0.125642      0.192932
O       1.92832      3.78901      6.70588         0.039589      0.611058      0.218151
O       1.89954     15.58899      6.68347         0.277620     -0.398383      0.066211
O      13.55075      3.91394      6.73263         0.502801     -0.244818     -0.264349
O      13.66762     15.60436      6.63777        -0.321356      0.271334      0.264062
O       1.84368      3.87556     10.81401         0.018378     -0.572776      0.387768
O       1.90301      0.01178     10.82707         0.108759     -1.107938     -0.560140
O      13.61718      3.86508     10.73111         0.019667      0.360216      0.571085
O      13.63997     15.53127     10.85170         0.310894      0.418758     -0.237853
O       1.89487      7.74444      2.58712         0.687534      0.640040     -0.227553
O       2.08554      7.78713     15.02147        -1.331764      0.134705     -0.500879
O      13.51272      7.67049      2.43704        -0.235699      0.812925     -0.072070
O      13.72662      7.72311     15.09079        -0.362338      0.475424     -0.436541
O       1.85981      7.63541      6.77395        -0.094674      1.295504     -0.167542
O      13.62856      7.85167      6.74893         0.019107      0.121517     -0.256578
O       1.85323      7.75108     10.73974         0.081614      0.825306      0.223136
O      13.62508      7.85510     10.94003        -0.093873     -0.657159     -0.146336
O       1.88700     11.71113      2.54698        -0.316255     -0.135554     -0.272110
O       1.88938     11.71043     14.93285        -0.391720     -0.677111      0.240800
O      13.78160     11.64981      2.47110        -0.283545      0.182441     -0.193302
O      13.70464     11.63070     15.04404        -0.308368      0.945866     -0.220579
O       1.92165     11.52606      6.71334        -0.095046      0.866524     -0.343549
O      13.64469     11.76846      6.72798         0.207428     -1.048570     -0.340383
O       1.88063     11.64498     10.66999         0.622153     -0.095401      0.342798
O      13.52992     11.70637     10.66918         0.139720      0.331831      0.812929
O       5.74636      3.92879      2.51541         0.585530     -0.505147     -0.384597
O       5.74106      3.90820     15.05875         0.639627     -0.548582     -0.126328
O       5.76936     15.52172      2.55205         0.135643      0.997335     -0.523512
O       5.61337     15.51140     15.05698         1.355877     -0.186886     -0.254415
O       5.71225      3.85321      6.63143         0.047987      0.081817      0.161008
O       5.90301     15.58285      6.54958        -0.500548     -0.560536      0.230812
O       5.71635      3.87518     10.80511         0.499831      0.151076      0.106534
O       5.79673     15.49488     10.62824         0.084720      1.220360      0.493156
O       5.73061      7.72036      2.40495        -0.262945      0.802644      0.639940
O       5.83303      7.75223     14.90124        -0.019918      0.636951      0.440634
O       5.87947      7.78985      6.50127         0.221320     -1.118516      0.662686
O       5.80792      7.72519     10.69108         0.175263      0.162239      0.176802
O       5.90543     11.63969      2.64836        -0.248730     -0.093133     -0.102933
O       5.88699     11.65281     14.91840        -0.140128      0.116488      0.076640
O       5.80980     11.59607      6.47888         0.333570      0.242857     -0.041432
O       5.82179     11.64883     10.73013         0.309113     -0.506245      0.065386
O       9.48464      3.83258      2.46011         0.626908      0.903554     -0.309810
O       9.81188      3.87135     15.13462        -0.165704     -0.640421      0.175571
O       9.73247     15.53626      2.53675         0.020821     -0.116397     -0.000201
O       9.81829     15.59038     15.03603        -0.570466     -0.230308     -0.101388
O       9.67668      3.93526      6.84627         0.188946     -0.684499     -0.212912
O       9.65112     15.57610      6.56125         0.492922      0.079984      0.468604
O       9.78048      3.76238     10.80167        -0.475839      1.133065      0.239632
O       9.73909      0.03616     11.01662        -0.832848     -1.181518     -0.250562
O       9.76607      7.78847      2.53786         0.113214     -0.694887     -0.255773
O       9.74524      7.79352     14.92821        -0.058260      0.371327      0.208850
O       9.70271      7.75217      6.61202        -0.187484     -0.352785      0.181208
O       9.77712      7.74642     11.00722        -0.118020     -0.024204     -0.551864
O       9.68885     11.64584      2.48206        -0.151841     -0.755132     -0.095600
O       9.67950     11.73100     15.05162         0.414356     -0.847734     -0.091628
O       9.69036     11.62184      6.59878        -0.015020      0.727108      0.131016
O       9.67170     11.65178     10.82203         0.128603      0.681884      0.009981
