  # total energy = -7883.46825744 
CRSYTAL
PRIMVEC
    15.6080000000000005    0.0000000000000000    0.0000000000000000
     0.0000000000000000   15.6080000000000005    0.0000000000000000
     0.0000000000000000    0.0000000000000000   16.6239999999999988
PRESSURE
0.093711 0.066681 1.44551 0.033065 0.133117 -0.036424
PRIMCOORD
320 1
Pb       3.85533      3.80482      4.10140        -0.375534     -0.173472      0.379398
Pb       3.89357      3.87372     16.55629         0.245970      0.007049      0.165619
Pb       3.91133     15.52307      4.06316        -0.082187      0.002930      0.672397
Pb       3.95391     15.57638     16.52913         0.080120      0.325587      0.523253
Pb       0.02294      3.92766      4.09230         0.236750     -0.378947      0.492902
Pb       0.02916      3.85084     16.60685        -0.687415      0.120926     -0.018041
Pb       0.00736     15.50660      4.12171         0.008420      0.028614      0.465177
Pb      15.59957     15.60573     16.54037        -0.033439     -0.175030      0.688876
Pb       3.95852      3.85870      8.19200        -0.841646      0.020638      0.475805
Pb       3.86803     15.44023      8.15852        -0.348210      0.895987      0.336995
Pb      15.54879      3.90198      8.26649         0.265773     -0.488942      0.235076
Pb      15.49853     15.51653      8.29279         0.620986      0.541434     -0.565999
Pb       3.83322      3.80691     12.44982         0.098426     -0.102201     -0.160474
Pb       3.93313      0.05355     12.54441         0.028758      0.126578     -0.306251
Pb       0.02701      4.04709     12.55648        -0.447208     -0.092948     -0.252531
Pb       0.07302     15.57313     12.50362        -0.646290      0.249064     -0.672768
Pb       3.93244      7.79240      3.96926        -0.194812      0.326555      0.878037
Pb       3.91502      7.80635     16.55281        -0.192582      0.078765      0.421466
Pb      15.44509      7.78064      4.09047         0.485408      0.191911      0.351183
Pb      15.59352      7.71696     16.54446        -0.495371      0.627148      0.432490
Pb       3.74649      7.77067      8.30257         0.728838     -0.037290     -0.138430
Pb      15.48725      7.70156      8.38133        -0.418907      0.439894      0.086861
Pb       3.90869      7.73762     12.34680        -0.426392      0.025267      0.527766
Pb      15.54028      7.76803     12.40374         0.045263      0.082739      0.406635
Pb       3.87582     11.69015      4.07649         0.231536     -0.227750      0.545066
Pb       3.83100     11.74862      0.03658        -0.131339     -0.248524     -0.067892
Pb      15.56024     11.61947      4.06725         0.043300      0.123626      0.047389
Pb      15.57839     11.62266     16.53530        -0.236429      0.054053      0.186412
Pb       3.88949     11.76458      8.39173        -0.267030     -0.804835     -0.162997
Pb       0.07022     11.72576      8.25611        -0.093251     -0.139715      0.267680
Pb       3.81214     11.63894     12.41382         0.225892      0.108124      0.215796
Pb      15.56190     11.79687     12.51152         0.109547     -0.253977     -0.518972
Pb       7.80124      3.86468      4.09082         0.544986     -0.485265      0.137389
Pb       7.82433      3.88527     16.56512        -0.038314      0.252504      0.981520
Pb       7.81667      0.00417      4.18101        -0.022248     -0.127406     -0.317047
Pb       7.77359      0.01574     16.53078         0.305416      0.420647      0.878337
Pb       7.85698      3.78447      8.27352         0.038635      0.974289      0.595390
Pb       7.75347      0.02922      8.13695         0.226694     -0.269557      0.700481
Pb       7.86338      3.82007     12.47215        -0.027622     -0.050153      0.075724
Pb       7.75153     15.57617     12.32464        -0.251825     -0.034840      0.930951
Pb       7.92153      7.78320      4.15125        -0.645627      0.548637      0.425841
Pb       7.62989      7.62753      0.00910         0.237846      0.182584      0.137863
Pb       7.77163      7.72887      8.20536        -0.173929     -0.288876      0.188894
Pb       7.65060      7.87858     12.42522         0.531222     -0.139946      1.064433
Pb       7.80578     11.67196      4.10381         0.157231      0.098860      0.475013
Pb       7.76125     11.78774     16.56208         0.323157     -0.325033      0.483248
Pb       7.94048     11.69414      8.35886        -0.581921     -0.031535     -0.155203
Pb       7.79067     11.79381     12.41907        -0.431075     -0.434672      0.246549
Pb      11.72238      3.79149      4.09841        -0.127527      0.114095     -0.137044
Pb      11.65301      3.88477      0.09992         0.157823     -0.116205      0.020333
Pb      11.70072     15.50331      4.09120         0.099978      0.419397      0.057963
Pb      11.70929     15.59695     16.50410        -0.578839     -0.185607      0.698464
Pb      11.69777      3.92897      8.32964        -0.130258      0.086625      0.112193
Pb      11.80113      0.05023      8.35855        -0.209892     -0.293310      0.107398
Pb      11.67166      3.90187     12.34042        -0.101810     -0.003283      0.792297
Pb      11.47521      0.09414     12.41881         1.358967     -0.447159      0.749805
Pb      11.70930      7.99709      4.25243         0.228731     -0.204104     -0.207125
Pb      11.76206      7.77455     16.58524        -0.390519      0.253290      0.024073
Pb      11.70837      7.67238      8.38228         0.122512      0.657122     -0.079031
Pb      11.68121      7.90841     12.43940        -0.176447      0.024372      1.442013
Pb      11.84863     11.69851      4.10435        -0.376201     -0.089811     -0.219529
Pb      11.52523     11.61068     16.57877         0.388632      0.417446      0.192514
Pb      11.63859     11.76718      8.42975         0.565777     -0.143884     -0.094879
Pb      11.66066     11.63983     12.47930        -0.096342      0.071173      0.319071
Ti       1.95828      1.79378      2.21596        -0.234562      0.455032      1.420385
Ti       1.91901      1.92132     14.69239         0.516829      0.057276      0.533613
Ti       1.93071     13.56104      2.18083        -0.233837      0.488854     -0.139921
Ti       1.91941     13.68209     14.72459         0.043206     -0.701759      1.217180
Ti      13.74440      1.90089      2.21621        -0.780609      0.095234      0.447754
Ti      13.65999      1.91178     14.71896         0.036797      1.255560     -0.082615
Ti      13.64114     13.70711      2.12079         0.196557     -0.918384      1.495529
Ti      13.64134     13.68911     14.64263        -0.387580     -0.967741      0.488716
Ti       1.91869      2.01235      6.34418        -0.216996     -1.008264      0.331284
Ti       1.97799     13.57414      6.34977        -0.559877      0.938629      0.491803
Ti      13.61975      1.98672      6.40429         0.863472     -0.967791     -1.124482
Ti      13.56266     13.63943      6.40391         0.791796      0.058701     -0.195550
Ti       1.83484      1.97036     10.44901         0.527852     -0.275894     -1.071049
Ti       1.94472     13.70154     10.51731        -0.383861     -0.864630     -0.300376
Ti      13.64862      1.96099     10.58074         0.365983     -0.448587      0.552732
Ti      13.57941     13.67360     10.59101         0.015424      0.666032      1.091188
Ti       1.98401      5.79781      2.18820        -0.834311      0.456415     -0.006550
Ti       1.82705      5.84624     14.83696         0.184698      0.745561     -1.253032
Ti      13.67209      5.76507      2.23744        -0.425167      1.216486     -1.374586
Ti      13.53274      5.84407     14.77436         0.631474     -0.079118     -0.673786
Ti       1.78758      5.89618      6.42593         1.022485     -0.744648     -0.637507
Ti      13.54097      5.79986      6.41289         0.202158      1.245360     -0.294212
Ti       2.00156      5.85462     10.45011        -1.041333     -0.236478      0.795425
Ti      13.54116      5.87480     10.69618         0.886061      0.291241     -1.340700
Ti       1.94363      9.72870      2.13964         0.205403     -0.812495      1.608975
Ti       1.92943      9.75706     14.63332        -0.216646     -0.329608      0.449979
Ti      13.71245      9.72382      2.13217        -0.765527     -0.017432     -1.246702
Ti      13.57074      9.85495     14.67222         0.075634     -1.184912      0.372449
Ti       1.92597      9.70305      6.48445         0.046492      0.135506     -0.484850
Ti      13.62751      9.79258      6.44558         0.156848     -0.472418      0.357612
Ti       1.90633      9.76849     10.57096        -0.755007      0.465368     -0.705710
Ti      13.59262      9.84382     10.57575         0.408277     -0.488143      0.631644
Ti       5.82774      1.87433      2.26448         0.799476      0.032544     -0.304084
Ti       5.89792      1.98591     14.71758        -0.668203     -0.928555     -0.450123
Ti       5.87399     13.65324      2.21272         0.597945     -0.049239      0.487909
Ti       5.82262     13.60564     14.75508         0.287596      0.716496     -0.972927
Ti       5.86106      1.99662      6.39997        -0.862738     -1.815512     -1.361233
Ti       5.84898     13.56416      6.39752         0.381236      0.146213     -0.890945
Ti       5.79345      1.82568     10.47447         0.046114      1.336046      0.741287
Ti       5.76551     13.60638     10.48640        -0.375667     -0.312496      0.075603
Ti       5.87441      5.74918      2.38654         0.248182      0.484701     -1.993315
Ti       5.73099      5.78895     14.61760         0.367770      0.953764      1.179913
Ti       5.76086      5.77168      6.31848         0.093893      1.439138      1.103711
Ti       5.90350      5.69981     10.55737        -0.441928      0.184407      0.035482
Ti       5.84107      9.78495      2.22478         0.737067     -0.708867      0.746931
Ti       5.78541      9.76700     14.75763         0.424671     -0.779019     -0.337616
Ti       5.89592      9.72164      6.52068        -0.852432     -0.278088     -1.826767
Ti       5.82785      9.70409     10.56166        -0.145016      0.263770      0.333930
Ti       9.74476      1.92724      2.25395         0.415302     -0.268851     -0.461473
Ti       9.82090      2.01214     14.74321        -0.250657     -0.362483      0.049347
Ti       9.77363     13.60775      2.29302        -0.110814      0.602847     -0.443849
Ti       9.73359     13.67766     14.65392         0.065406     -0.051500      0.381059
Ti       9.77281      2.02121      6.37884         0.801703     -0.566251     -1.383913
Ti       9.75787     13.70357      6.44788         0.074923     -0.411816     -0.259825
Ti       9.71317      1.91950     10.55028        -0.432619      0.441722      0.565948
Ti       9.70171     13.62157     10.57685         0.959065      0.644128     -0.281013
Ti       9.76776      5.87067      2.30213         0.550014     -0.336402     -0.817957
Ti       9.72541      5.83720     14.69996         0.088850      0.863048      0.134433
Ti       9.71459      5.87232      6.33360        -0.006528     -0.016850     -0.719405
Ti       9.66513      5.90117     10.62466        -0.052435     -0.755983      0.220851
Ti       9.70987      9.73066      2.22153         0.780686      0.197167      0.320277
Ti       9.63823      9.71589     14.73318         0.572382     -0.659103      0.012351
Ti       9.79943      9.79269      6.48914        -0.076984     -0.887578     -0.240872
Ti       9.69756      9.67861     10.51723         0.640224      0.587050      0.932181
O       1.94953      1.89673      0.48350        -0.038683      0.123640     -0.713591
O       1.92493      1.84804     12.94320         0.040162     -0.160753     -0.408778
O       2.03338     13.54072      0.40137        -0.126802      0.291668      0.470194
O       1.84144     13.74582     12.99094         0.279894     -0.113016     -0.970817
O      13.71900      1.94377      0.46409         0.253814      0.095187     -0.738152
O      13.69266      1.84920     12.98027        -0.072951      0.154540     -0.502217
O      13.59986     13.60069      0.42599        -0.043167      0.279358     -1.387909
O      13.75449     13.66099     12.90061         0.169497      0.120412     -0.315000
O       2.00306      1.95416      4.54293        -0.134498     -0.288882      0.505746
O       2.05223     13.67948      4.61708        -0.420386     -0.344557     -1.089330
O      13.69788      1.92669      4.60982        -0.602695      0.232155      0.358775
O      13.59362     13.63232      4.62049         0.106293     -0.022480      0.164111
O       1.82877      2.01124      8.61582         0.134416      0.091329      1.927530
O       2.01902     13.34118      8.72684        -0.076214      1.026084      0.477208
O      13.61852      2.00142      8.79578        -0.005828     -0.031863     -0.001360
O      13.42268     13.70011      8.85167         0.430896      0.047603     -1.273359
O       1.80223      5.74819      0.38980         0.358392     -0.219361      0.523525
O       1.75022      6.03201     13.05557         0.477128     -0.813941     -0.584395
O      13.86842      5.95157      0.40616        -0.885374     -0.614535      1.069924
O      13.57253      5.79057     12.98340        -0.119008      0.117430     -0.721268
O       1.95317      5.90712      4.66444        -0.398042      0.017738     -0.472505
O      13.56530      5.83335      4.64094         0.001961      0.102293     -0.226404
O       1.86654      5.85203      8.68720         0.123246     -0.496918      0.877173
O      13.50186      6.06600      8.81519         0.286540     -0.861267      0.591130
O       1.99677      9.78293      0.45216        -0.174004      0.149813     -1.521125
O       2.09224      9.75645     12.85949        -0.404582     -0.204688      0.206127
O      13.84776      9.67177      0.30550        -0.693367      0.452325      1.206125
O      13.47996      9.78427     12.90910         0.416317      0.415743     -0.612609
O       1.91398      9.57945      4.72037         0.184114      0.230044     -0.433975
O      13.62807      9.76028      4.64961         0.219538      0.305980     -0.144038
O       1.84182      9.83173      8.75899         0.158824      0.045686      0.740820
O      13.46605      9.72816      8.84315         0.448099     -0.076248     -0.965817
O       5.88881      1.87123      0.49298        -0.235700      0.517769     -0.670588
O       5.79900      1.76628     12.94203         0.161009      0.408643      0.249722
O       5.80786     13.56667      0.43940         0.269022      0.183208     -0.234075
O       5.92974     13.66447     12.95855        -0.113162     -0.184078      0.180486
O       5.85752      1.89666      4.57983         0.172665     -0.063171      1.200433
O       6.08596     13.65849      4.60174        -0.832195     -0.208116      0.662588
O       5.85920      1.95104      8.71348        -0.003389     -0.101665     -0.193198
O       5.58082     13.52512      8.71366         0.650612      0.371188      0.471805
O       5.99097      5.58462      0.54645        -0.477793      0.581475      1.015576
O       5.59504      5.87080     12.89413         0.476107     -0.065450     -0.557556
O       5.73418      5.79458      4.56250         0.193420     -0.272331     -0.245918
O       5.81190      5.77310      8.79110         0.250821     -0.255680      0.297588
O       5.83371      9.70852      0.49508         0.144549      0.171846     -0.961361
O       5.84955      9.77670     12.98571        -0.398514     -0.349774     -0.689251
O       5.91279      9.65532      4.68872        -0.169974      0.378481      0.815434
O       5.95239      9.60249      8.84781        -0.226436      0.309027     -1.029783
O       9.67769      1.92125      0.47558         0.593479     -0.195850     -0.741115
O       9.76124      2.02674     12.96921        -0.042630      0.079152     -0.154473
O       9.85903     13.66561      0.54627        -0.264056     -0.130197     -1.192594
O       9.56673     13.59069     12.90895        -0.037972      0.028737     -0.928411
O       9.85387      1.99967      4.54725        -0.059630      0.281634      1.108015
O       9.84093     13.52884      4.70190        -0.224517      0.244832     -0.469534
O       9.59665      1.84069      8.82162         0.373028      0.241036     -1.389735
O       9.88385     13.74110      8.82272        -0.481112     -0.144677     -0.455446
O       9.66219      6.13530      0.52142        -0.086972     -0.590131      0.249718
O       9.76991      5.70078     12.94203         0.106997      0.080167     -0.233497
O       9.87378      5.73619      4.53046        -0.334179      0.067992      0.855452
O       9.46269      5.83865      8.89185         0.611197      0.231755     -0.507083
O       9.70720      9.69793      0.46355         0.294719      0.062530     -0.379133
O       9.86824      9.79413     13.00049        -0.607938      0.284351     -1.136505
O       9.75955      9.82227      4.73265         0.091669     -0.011145     -0.853535
O       9.71409      9.50905      8.78126        -0.169103      0.713944     -0.253398
O       3.93095      1.81115      2.52137        -0.886529      0.457370     -0.009876
O       3.93168      1.87117     14.99901        -0.343358      0.395752      0.239365
O       3.98317     13.55112      2.56276        -0.404833      0.249773     -0.039420
O       3.90200     13.64261     15.02379         0.106109     -0.164611     -0.244251
O       0.03866      1.73379      2.64613         0.200881      0.901018     -0.610903
O       0.02871      1.89377     15.05325        -0.133510     -0.262178     -0.061233
O       0.03286     13.66292      2.51226        -0.115100     -0.395340     -0.028304
O      15.60358     13.57656     15.07036        -0.003043      0.724994     -0.291735
O       3.86688      1.97889      6.61619         0.465502     -0.032518      0.262919
O       3.91226     13.69890      6.55985        -0.207551     -0.376010      0.346162
O      15.52862      1.94207      6.62500         0.115421      0.037096      0.447909
O      15.56658     13.71382      6.72470        -0.186758     -0.535723      0.024632
O       3.82513      1.94288     10.93841         0.581317     -0.239792     -0.474057
O       3.86222     13.64223     10.88947         0.186685      0.056026      0.187773
O      15.58912      1.94913     10.86729         0.191012     -0.069783     -0.047623
O       0.03743     13.60372     10.85863        -0.599252      0.073410     -0.122924
O       3.85980      5.74236      2.50815         0.263449     -0.185709     -0.109094
O       3.86644      5.92134     15.12637        -0.071557     -1.037541     -0.212358
O      15.59505      5.92245      2.61189         0.533124     -0.263292     -0.009984
O      15.47926      5.93324     15.02773         1.254357     -0.444130     -0.144441
O       3.82355      5.77262      6.68515         0.524582     -0.108006      0.192582
O      15.50078      5.72669      6.74208        -0.396821      0.680430     -0.095561
O       3.85162      5.75994     10.89937        -0.269417      0.438226     -0.501211
O      15.45453      5.90550     10.82179         1.556406     -0.171883      0.275974
O       3.98542      9.82892      2.52595        -1.022919     -0.206814      0.218620
O       3.86610      9.75669     15.08123         0.396869     -0.141009     -0.152569
O       0.01512      9.71042      2.51104         0.434720      0.069044      0.301633
O       0.03030      9.78120     14.88867         0.088312     -0.028453     -0.094546
O       3.84788      9.59304      6.85659         0.229309      0.321769     -0.182687
O      15.58235      9.82770      6.75119        -0.824368     -0.028245      0.108079
O       3.84494      9.80793     10.76027         0.779143     -0.579681      0.201371
O      15.53002      9.81090     10.83579         0.190794     -0.100269      0.368457
O       7.89031      1.85054      2.57458        -1.032511      0.241717      0.344167
O       7.77574      2.00819     15.12757         0.283368     -0.132484     -0.909423
O       7.84560     13.73037      2.62715        -0.146725     -0.337281     -0.474017
O       7.82540     13.75528     15.17991        -0.331707     -0.929733     -0.648690
O       7.86072      2.10062      6.65989        -0.729193     -0.784426     -0.185053
O       7.75599     13.51291      6.82835         0.533336      0.235522      0.150919
O       7.77585      1.85337     10.94788        -0.412686      0.356116     -0.464022
O       7.71376     13.68353     10.69632         0.460172     -0.370004      0.201907
O       7.80353      5.83694      2.70143        -0.145677     -0.011322     -0.139695
O       7.80775      5.70477     14.99697        -0.376023      0.805779     -0.302209
O       7.81821      5.74417      6.68180        -0.776343     -0.078264     -0.453957
O       7.76677      5.76756     11.08167        -0.201942      0.410630     -0.398477
O       7.86082      9.70217      2.50043        -0.308031     -0.129566      0.482640
O       7.74263      9.56147     14.96562         0.350470      0.480752      0.277827
O       7.77416      9.73311      6.78004        -0.042252      0.220773      0.243050
O       7.80585      9.77373     10.97255         0.034957      0.176408     -0.353090
O      11.78973      2.08054      2.46978        -0.100289     -0.470425      0.203228
O      11.74782      2.04465     15.07158        -0.455576     -0.547008      0.018282
O      11.74185     13.61004      2.54266         0.396957      0.155318      0.349402
O      11.64640     13.66591     14.83126         0.290424     -0.064462      0.499314
O      11.70163      1.96731      6.74455        -0.900324     -0.088872      0.185090
O      11.66596     13.72897      6.73423        -0.426315     -0.145019      0.131371
O      11.67479      1.88632     10.84685         0.190810      0.527577     -0.104938
O      11.68298     13.82271     10.99232        -0.514244     -0.686890     -0.146434
O      11.69653      5.75400      2.35420         0.825147     -0.074902      0.346306
O      11.69051      5.80081     15.18229        -0.130553     -0.228915      0.036017
O      11.58591      5.90978      6.81703         0.928440     -0.434339     -0.012985
O      11.59892      5.77224     10.75682         0.040615      0.023108      0.404085
O      11.78556      9.75634      2.51568        -0.385902      0.288567     -0.014583
O      11.68101      9.91338     15.00738        -0.102161     -0.244032      0.435375
O      11.65337      9.74583      6.75948         0.799055     -0.132621     -0.020091
O      11.71253      9.78568     10.94217        -1.480213     -0.304513     -0.358557
O       1.86922      3.81852      2.58983         0.282341      0.482863     -0.547342
O       1.92998      3.84946     14.94668         0.047844      0.307489      0.291139
O       1.89966     15.45260      2.59620         0.911523      0.919047     -0.413721
O       1.98210     15.60733     15.13161        -0.264001     -0.535800     -0.486339
O      13.80637      3.89855      2.53419        -0.014930     -0.017065     -0.196351
O      13.74757      3.87766     14.96659        -0.089024     -0.154665      0.504102
O      13.69877      0.01044      2.41429        -0.463767     -0.721799      0.483001
O      13.60390     15.57278     15.10393         0.530314      0.116360     -0.327360
O       1.79729      3.88083      6.69643         0.408021      0.221241     -0.136084
O       1.92414     15.57512      6.83101        -0.176243      0.003295     -0.514803
O      13.54493      3.93160      6.70232        -0.230476     -0.274849      0.392482
O      13.54971     15.60732      6.71759         0.289247      0.096876      0.361511
O       1.95652      3.86042     10.93470        -0.514768      0.907025     -0.360966
O       1.89136     15.56851     10.71435         0.066216      0.587347      0.156298
O      13.75585      3.92380     11.01752        -0.946833     -0.576932     -0.596046
O      13.66284     15.60510     10.89535         0.306285      0.699735     -0.210762
O       2.05518      7.78892      2.34570        -0.060327     -0.393863      0.434382
O       1.96024      7.74809     15.08496         0.046089      1.011483      0.078809
O      13.62177      7.82722      2.48670         0.220356     -0.430224      0.519711
O      13.49470      7.88427     14.89368         0.356782     -0.819476      0.332625
O       1.77987      7.74287      6.89334         0.228577      0.297606     -0.348382
O      13.64999      7.83810      6.69306        -0.122134     -0.312579      0.171172
O       1.84776      7.80776     10.76219         0.515562     -0.613572      0.078879
O      13.53778      7.77257     11.06827         0.288415      0.288198     -0.833515
O       1.99686     11.66642      2.51124        -0.199957     -0.091184      0.443904
O       1.96407     11.67198     15.10624         0.132474      0.273295     -0.837017
O      13.77954     11.70448      2.46815        -0.268083     -0.324307      0.302436
O      13.65421     11.75088     14.98305         0.093768      0.260838      0.050519
O       1.94318     11.68615      6.60847         0.080802     -0.104794      0.171554
O      13.52234     11.73932      6.79206         0.222578     -0.093226     -0.165437
O       1.91477     11.70614     11.00436         0.119342     -0.014494     -0.211347
O      13.49242     11.75508     10.88557         0.525500     -0.143394     -0.063566
O       5.87362      3.75657      2.68941        -0.056939      1.138717     -0.271310
O       5.77732      3.92721     14.91341        -0.142187     -1.057537      0.211131
O       5.85993      0.00313      2.52648         0.112481     -1.302729      0.191986
O       5.84185     15.56350     15.03381         0.086642      0.160331      0.145549
O       5.80068      3.79675      6.73157         0.224217      1.548004     -0.315410
O       5.81088     15.53608      6.76586         0.603726      0.715136     -0.351120
O       5.89054      3.83229     10.89910        -0.364739     -0.208946      0.019850
O       5.81242     15.60449     10.78267        -0.215488     -0.906481      0.048395
O       5.86635      7.73756      2.53347        -0.068683     -0.194411     -0.088715
O       5.80921      7.74389     15.10151        -0.043869     -0.218424     -0.405724
O       5.78005      7.67823      6.71719         0.368294     -0.072045      0.066434
O       5.91704      7.73752     10.91939        -0.670822      0.424163     -0.280695
O       5.97748     11.69024      2.54447        -0.101755      0.169900      0.032796
O       5.92771     11.65101     15.02993        -0.040894      0.683561      0.067000
O       5.70912     11.66639      6.76084         0.396352     -0.484201     -0.180888
O       5.77344     11.67048     10.87628         0.366358      0.330948     -0.173024
O       9.71148      3.88551      2.34805        -0.034395      0.576277      0.721851
O       9.83477      3.92181     15.09405        -0.253218     -0.336455      0.285395
O       9.85110     15.58677      2.56028         0.192676     -0.051220      0.532042
O       9.76334      0.04395     14.87990         0.036434     -0.086789      0.524535
O       9.84230      3.91705      6.78685        -0.222073     -0.423531     -0.036226
O       9.57337     15.59859      6.55025         0.269680      0.475579      0.386509
O       9.67861      3.84602     10.85544         0.031899      0.079701      0.005238
O       9.75087      0.00265     10.94395        -0.662174     -0.241368     -0.198017
O       9.86558      7.82508      2.82629        -0.491413      0.060131     -0.917238
O       9.95257      7.79118     14.87296        -0.610911     -0.376753      0.415995
O       9.72430      7.78609      6.61212        -0.380862     -0.700856      0.109181
O       9.73462      7.84726     10.96134        -0.301198     -0.827870     -0.201001
O       9.79350     11.71128      2.56212        -0.212015     -0.929471     -0.035594
O       9.65478     11.68537     15.01397        -0.240950      0.692720      0.345020
O       9.76794     11.64744      6.87247        -0.259525      1.137139      0.286298
O       9.87657     11.72648     10.74117        -0.828010     -0.306800      0.100280
