  # total energy = -7882.48080726 
CRSYTAL
PRIMVEC
    15.6080000000000005    0.0000000000000000    0.0000000000000000
     0.0000000000000000   15.6080000000000005    0.0000000000000000
     0.0000000000000000    0.0000000000000000   16.6239999999999988
PRESSURE
-0.379818 -0.360927 -0.184336 -0.168245 0.267047 -0.077987
PRIMCOORD
320 1
Pb       3.93785      3.80457      4.10315         0.048229      0.701822      0.206955
Pb       4.01684      3.96644      0.05238        -0.232477     -0.325062     -0.424272
Pb       3.91070     15.58186      3.99791        -0.116259     -0.074477      0.035309
Pb       3.87049     15.57100     16.55479         0.017175     -0.097345     -0.160065
Pb       0.03572      3.87413      4.08977         0.065152      0.284983      0.931849
Pb      15.59258      3.79439     16.60595        -0.209781      0.327817     -0.234675
Pb      15.57836     15.48892      4.01702        -0.103229     -0.064995      0.536537
Pb      15.58179     15.58980     16.56434        -0.087304     -0.317674     -0.052212
Pb       3.78978      3.78029      8.24133         0.641298      0.190103      0.321729
Pb       3.84381     15.57166      8.14737         0.306154     -0.459347      0.432558
Pb      15.47811      3.83514      8.26839         0.192487      0.522753      0.124225
Pb      15.54001     15.55134      8.21248         0.029876     -0.375533      0.618518
Pb       3.76863      3.85310     12.47637         0.527267      0.101656      0.073608
Pb       3.86910     15.55974     12.53449         0.362398     -0.034476     -0.172028
Pb       0.06918      4.03083     12.54578        -0.117702     -0.526980     -0.123821
Pb       0.07093      0.12715     12.64093        -0.194014     -0.143417     -0.344966
Pb       3.85721      7.86821      4.03385         0.050880     -0.635720      0.545635
Pb       3.89800      7.76961     16.51938        -0.325672      0.135819      0.415400
Pb      15.54215      7.84825      4.14162         0.300426     -0.323146      0.016768
Pb      15.57244      7.75137     16.51330         0.736816     -0.357291      0.887165
Pb       3.79811      7.73104      8.30431         0.363829      0.162446     -0.124048
Pb      15.33822      7.70701      8.54420         0.571871     -0.034913     -0.562952
Pb       3.94116      7.76018     12.36948        -0.447396      0.545812     -0.078292
Pb      15.50885      7.82491     12.49422         0.267652      0.366499      0.204289
Pb       3.83762     11.72263      4.01396         0.126107     -0.274135      0.545771
Pb       3.81824     11.74046     16.60396         0.364672     -0.098425     -0.416624
Pb      15.51996     11.63388      4.01602         0.419827      0.389664      0.356663
Pb      15.55356     11.71683     16.54477         0.232557      0.064653      0.043334
Pb       3.84859     11.78584      8.28906        -0.083738     -0.730333     -0.296533
Pb       0.02488     11.68030      8.23735        -0.015428     -0.361720      0.331932
Pb       3.88642     11.63305     12.35710        -0.120975     -0.284346      0.143644
Pb       0.09199     11.71795     12.46064        -0.422103     -0.213130      0.121643
Pb       7.77295      3.72824      4.15014         0.308570      0.777275     -0.322604
Pb       7.79810      3.98583     16.54994         0.196096     -0.459878      0.880246
Pb       7.73137     15.55012      4.13653         0.449635     -0.208542     -0.380909
Pb       7.79632      0.13252     16.60832         0.221584     -0.636491      0.049144
Pb       7.74916      3.82751      8.37229        -0.260513      0.084480     -0.221991
Pb       7.84183      0.02877      8.19503        -0.019593     -0.026968      0.169861
Pb       7.82688      3.72583     12.40024        -0.481480      0.607753      0.618421
Pb       7.70144     15.55304     12.40267         0.241694      0.247814      0.411951
Pb       7.83876      7.83433      4.17751         0.297697     -0.676441     -0.054087
Pb       7.61660      7.73671     16.59022         0.382554      0.280757      0.265748
Pb       7.80955      7.71758      8.19247         0.068489      0.028744      0.092139
Pb       7.70686      7.76531     12.41473         0.072985     -0.129225      0.381192
Pb       7.84296     11.72694      4.16590         0.173304     -0.124077      0.417038
Pb       7.69341     11.81132     16.54759        -0.603641     -0.339666      0.187309
Pb       7.83783     11.74907      8.29133         0.216843     -0.424178     -0.628060
Pb       7.76737     11.67828     12.38962         0.283232     -0.180767      0.329339
Pb      11.84195      3.77969      4.24183        -0.420623      0.431518      0.333225
Pb      11.70476      4.01459      0.17151         0.144206     -0.442503     -0.536735
Pb      11.61236     15.45160      4.09362         0.519248     -0.098600      0.365489
Pb      11.61623     15.55801     16.54449         0.487912      0.105400     -0.022185
Pb      11.72931      4.05097      8.43499        -0.103784     -0.063763     -0.439991
Pb      11.72770      0.15017      8.34328         0.029959     -0.613650     -0.089293
Pb      11.75907      3.84818     12.45579        -0.281268      0.385335      0.451576
Pb      11.53162      0.07626     12.39971         0.558039     -0.776481      0.712509
Pb      11.77196      7.86667      4.23373        -0.412505     -0.132254     -0.290676
Pb      11.63616      7.80973     16.60538         0.159671     -0.097586      0.029935
Pb      11.69317      7.76035      8.36481        -0.595495      0.283163     -0.020076
Pb      11.53402      8.00064     12.54310         0.439498     -0.558554     -0.047172
Pb      11.88410     11.46261      4.16484        -0.844159      0.551746      0.399408
Pb      11.57767     11.65912     16.52667         0.954192     -0.043531      0.155014
Pb      11.79257     11.88268      8.51932        -0.132729     -0.258755     -0.553546
Pb      11.59202     11.76130     12.43249         0.463615      0.066748     -0.133318
Ti       1.97653      2.04401      2.20649        -0.270563     -1.163185     -0.259651
Ti       1.98961      2.04686     14.66189         0.738198     -1.043036     -0.173617
Ti       1.94264     13.67351      2.16521        -0.685410     -0.287851     -0.427576
Ti       1.90679     13.66169     14.58062         0.045796      0.011976      0.752865
Ti      13.66291      1.91938      2.33205         1.059448     -0.964833     -1.083092
Ti      13.75242      1.93535     14.61857        -1.503196     -0.685534     -0.234164
Ti      13.61884     13.54544      2.14330         0.579973      1.483315     -0.303238
Ti      13.60704     13.59107     14.66456         0.191354      0.320462      0.194128
Ti       1.89841      1.76818      6.36605         0.236988      0.499249     -1.106580
Ti       1.86884     13.53152      6.25398         0.306123      0.077245     -0.583740
Ti      13.64613      1.88257      6.41828        -0.269185      0.164557      0.079957
Ti      13.64607     13.56835      6.41518        -0.516512      0.420238     -0.518888
Ti       2.02953      1.83171     10.59948        -1.077945      1.190152     -0.543551
Ti       1.91767     13.65199     10.52148         0.387760     -0.102229      0.675615
Ti      13.74158      2.01469     10.58500        -0.202615     -0.624932      0.646134
Ti      13.67620     13.78880     10.62576        -0.320869     -0.862375     -0.110625
Ti       1.88321      5.88934      2.22800         0.453998      0.423520      0.184274
Ti       2.02880      5.90000     14.52138        -1.000750     -0.778485      0.270485
Ti      13.58007      5.82471      2.29938         0.603493      0.268733      0.135587
Ti      13.68513      5.75644     14.69668        -0.141915      0.263849     -0.361175
Ti       1.95296      5.68006      6.36179        -0.519798      1.467829     -0.823392
Ti      13.64176      5.89704      6.35475         0.248977     -0.661455      0.124756
Ti       1.83443      5.83601     10.58667         0.594589      0.124777      0.744325
Ti      13.57810      5.88938     10.67682        -0.104834      0.467800     -0.477908
Ti       1.99003      9.75257      2.22893        -0.932578     -0.193734     -1.066098
Ti       1.95832      9.76981     14.73304        -0.443864     -0.074888     -0.551407
Ti      13.65264      9.69757      2.18567        -0.088656     -0.627285     -0.381440
Ti      13.68115      9.61587     14.79600        -0.311766      1.136648     -1.420523
Ti       1.99572      9.60832      6.36863        -0.021937     -0.082880      0.724628
Ti      13.71988      9.72113      6.48401        -0.362302      0.360376      0.405517
Ti       1.89797      9.74412     10.46291         0.734521     -0.208515      0.002904
Ti      13.73181      9.85240     10.59077        -1.072355     -0.338192     -0.245256
Ti       5.90588      1.96263      2.14748         0.194979     -0.186005     -0.185339
Ti       5.89760      1.81952     14.66590        -0.640613      0.362007     -0.286024
Ti       5.92259     13.53825      2.30603        -0.235646      0.495816     -1.736247
Ti       5.82976     13.58122     14.60916        -0.291243     -0.011461      0.449611
Ti       5.85385      1.78975      6.24046         0.083820      0.941675      1.541309
Ti       5.90146     13.49863      6.34140        -0.354811     -0.224964     -1.076429
Ti       5.77460      1.97030     10.51860         0.661159     -0.250754     -0.358939
Ti       5.83695     13.59130     10.50421        -0.160798      0.844894      1.111640
Ti       5.79799      5.89162      2.17061         0.487636     -0.806832      0.531407
Ti       5.85771      5.74296     14.74183         0.118367      0.315658     -1.060706
Ti       5.78514      5.76688      6.28168         0.283141      0.141095      0.140969
Ti       5.71465      5.80637     10.58877         0.561556     -0.786227     -1.931879
Ti       6.02906      9.71191      2.27429        -1.045873      0.246836     -1.160415
Ti       5.86413      9.68301     14.60193        -0.696454      0.951145      0.238927
Ti       5.88201      9.60863      6.29040        -0.030271      0.517761      1.303826
Ti       5.88305      9.74539     10.42731        -0.932186     -0.816837      0.124221
Ti       9.90810      1.92643      2.24866        -1.567397     -0.577315     -0.885291
Ti       9.84459      1.91860     14.75496         0.254236     -0.552462     -0.043304
Ti       9.82250     13.52967      2.15106        -0.427711      0.679364      1.061037
Ti       9.70390     13.55405     14.67545         0.418310      1.366104     -1.110241
Ti       9.79749      1.96613      6.42648        -0.080975     -0.208018      1.445900
Ti       9.80633     13.62669      6.34785         0.209288     -0.004675      1.140109
Ti       9.76877      1.94519     10.55162        -0.370330      0.188316     -1.531133
Ti       9.65489     13.68914     10.48052         1.385454     -0.510457     -0.331512
Ti       9.77165      5.78848      2.27090        -0.852136      0.374963      0.036988
Ti       9.78491      5.81118     14.82810         0.099135      0.287001     -1.678610
Ti       9.72501      5.77865      6.33930        -0.195488      0.631789      0.140741
Ti       9.64607      5.81133     10.72966         0.655436      0.856553     -0.637728
Ti       9.80108      9.68417      2.06749         0.564635     -0.271397      1.205990
Ti       9.67741      9.70666     14.70738         0.035023     -0.506140     -0.148731
Ti       9.86988      9.76469      6.42344         0.062874     -0.161548      0.128958
Ti       9.70611      9.72684     10.51112         0.641600     -0.055258      0.109127
O       1.92616      1.95888      0.40140        -0.092616      0.471761      0.476982
O       2.03711      1.91076     12.86537        -0.178521     -0.280539      0.296186
O       1.89986     13.73226      0.35769         0.303594     -0.474810      0.420799
O       1.92823     13.59655     12.80087         0.158040      0.212695     -0.029502
O      13.80437      1.90119      0.52787         0.092611      0.313057      0.580434
O      13.69612      2.07411     12.81611        -0.013036     -0.401456      0.657379
O      13.69461     13.69540      0.35899        -0.188738     -0.226394      0.533899
O      13.61802     13.58299     12.91536         0.229588      0.029847     -1.153859
O       1.94141      1.80923      4.58430         0.325425      0.299319      0.471257
O       1.73904     13.53894      4.45603         0.786649     -0.117757      0.816270
O      13.57418      1.91330      4.66839         0.145029     -0.038889     -0.840201
O      13.70911     13.56832      4.65058        -0.250651     -0.118510     -0.340724
O       2.08013      1.91527      8.78916        -0.344857     -0.399381     -0.225294
O       2.09128     13.85408      8.79563        -0.190335     -0.483903     -1.073382
O      13.68466      1.85082      8.81264        -0.101246      0.350879     -0.472961
O      13.63084     13.67663      8.82329        -0.067946     -0.219667     -0.031832
O       1.92101      5.95971      0.45426        -0.009588     -0.810066      0.424449
O       2.08417      5.88166     12.70671        -0.348806     -0.104412      1.342429
O      13.62374      5.65846      0.54195         0.250738      0.018898     -0.988158
O      13.61553      5.86450     12.92228         0.182965     -0.410448      0.549016
O       1.94250      5.74586      4.56075         0.210043      0.149630      1.051618
O      13.57053      5.94052      4.56006         0.081601     -0.203498      0.725156
O       1.84893      5.61868      8.87384        -0.148499      0.069229     -1.626302
O      13.74639      5.76927      8.79636        -0.504388      0.440042      0.571186
O       1.87774      9.75186      0.42118         0.475397     -0.096976      0.649096
O       1.80440      9.73770     12.95808         0.283728      0.018977     -0.078509
O      13.59486      9.69692      0.44806         0.073389     -0.023184     -1.190870
O      13.77930      9.70380     12.98659        -0.150410     -0.204731      0.586609
O       1.98999      9.72559      4.57632        -0.250585     -0.061515      0.099373
O      13.57748      9.72709      4.67038         0.115195     -0.237524     -0.811919
O       1.96675      9.86633      8.68569        -0.123412     -0.463154      0.194092
O      13.81861      9.79235      8.75984        -0.215462     -0.067888      0.762632
O       5.86176      1.86511      0.35760         0.053272      0.167560      0.613970
O       5.83491      1.92127     12.87532         0.084656     -0.183035      0.348223
O       5.87600     13.49291      0.45002         0.037953     -0.160846      0.550490
O       5.82183     13.60824     12.84588         0.062684      0.115155     -0.282937
O       5.85073      1.88407      4.47006         0.159343      0.006514     -0.352613
O       5.89769     13.50799      4.49059        -0.040263      0.368733      0.249217
O       5.87474      1.92662      8.71769        -0.249941      0.122257      0.527891
O       5.96485     13.64111      8.76704        -0.039157     -0.265544     -1.229630
O       5.75223      6.02326      0.32819         0.196738     -0.901927     -0.098404
O       5.90500      5.77122     12.96003        -0.485138      0.325028      0.384927
O       5.77061      5.85385      4.49303         0.116281     -0.041493      0.355825
O       5.89906      5.63128      8.75973        -0.082785      0.529386      0.880286
O       5.98540      9.87796      0.46198        -0.135790     -0.411956      0.605310
O       5.76219      9.60150     12.83590         0.167633      0.362166      0.094295
O       5.87095      9.60811      4.51897        -0.009957     -0.192260     -1.017022
O       5.80908      9.78745      8.67407         0.316637     -0.115924      0.329495
O       9.89109      1.75406      0.42453        -0.305394      0.409399      1.140930
O       9.84010      1.87695     12.97114        -0.402141      0.443871     -0.241500
O       9.80361     13.80243      0.41500        -0.110286     -0.886139     -0.345442
O       9.80118     13.57573     12.87349        -0.316397     -0.198702      0.518106
O       9.77816      2.07681      4.70581         0.015219     -0.358657     -2.020033
O       9.71429     13.60166      4.60312         0.279962      0.002894     -1.061419
O       9.75412      2.03438      8.71374         0.230835     -0.450483      1.284842
O       9.59456     13.68121      8.65841         0.229942     -0.141588      0.983247
O       9.76996      5.59234      0.46275         0.152696      0.903496      0.350789
O       9.78195      5.72346     13.02051        -0.313993     -0.130383      0.640299
O       9.71317      5.89565      4.57499         0.230789     -0.239261     -0.179323
O       9.84007      5.94068      8.93253        -0.272818     -0.422278      0.273040
O       9.93514      9.64114      0.31636        -0.721233      0.346363     -0.099535
O       9.66116      9.83269     12.93295         0.220039     -0.100402     -0.237339
O      10.01780      9.72960      4.61494        -0.490225     -0.008184      0.365414
O       9.79382      9.65709      8.76705        -0.195140      0.088625     -0.404382
O       3.90638      1.96236      2.53318        -0.006106     -0.486445     -0.227394
O       3.96784      1.96737     15.02210        -0.469864     -0.018623      0.027807
O       3.90598     13.56501      2.48037        -0.380197     -0.005016      0.141475
O       3.84627     13.72566     14.96600         0.141020     -0.509242     -0.007267
O       0.04626      1.97927      2.69369        -0.028537     -0.199496     -0.854766
O       0.03940      2.00761     14.89938        -0.154654     -0.051835      0.323942
O      15.54913     13.63483      2.46988         0.095147     -0.331947     -0.126042
O       0.01904     13.57036     14.94481         0.363102      0.254937     -0.050095
O       3.91950      1.80099      6.67786        -0.227368      0.037513     -0.564778
O       3.94886     13.60845      6.62272        -0.328573      0.091850     -0.091950
O      15.59212      1.84818      6.78780         0.647610      0.422467     -0.446443
O      15.55079     13.60912      6.67716         1.287430     -0.338513      0.360347
O       3.87345      1.92928     10.86691         0.964526     -0.157803     -0.033334
O       3.98598     13.53758     10.83060        -0.280719      0.459351     -0.124820
O      15.56820      1.90381     10.92516         0.343003     -0.087073     -0.290319
O       0.05856     13.65270     10.71921        -1.018262      0.200029      0.465112
O       3.89883      5.92662      2.46287        -0.719010     -0.277626      0.034233
O       3.86925      5.75251     14.99548         0.729473      0.119839     -0.005136
O      15.57960      5.71036      2.62738         0.315871      0.446181     -0.407146
O       0.04347      5.90282     14.83989        -0.550320     -1.061025      0.294559
O       3.88379      5.94385      6.73867        -0.219109     -0.876147     -0.250665
O      15.57818      5.83606      6.68712         0.058607     -0.278785     -0.111585
O       3.80969      5.81137     10.72971         0.416420      0.105499      0.422618
O      15.53443      5.88496     11.02791         0.481731     -0.716157     -0.359314
O       3.84166      9.65567      2.49425         0.645121      0.445888     -0.176807
O       3.81425      9.77874     14.99031         1.190077     -0.319758      0.217316
O      15.51070      9.68641      2.55942         0.592904      0.199364      0.083856
O       0.00541      9.67838     15.17877        -0.333655      0.095902     -0.466903
O       3.98355      9.70596      6.67768        -0.976668     -0.109456     -0.137092
O       0.02828      9.70423      6.72980         0.261884      0.166986     -0.397535
O       3.80143      9.70902     10.83462         0.847259      0.090865      0.088669
O      15.59953      9.80858     10.92796         0.206191      0.022813     -0.319033
O       7.82206      1.98734      2.46769        -0.161887      0.063664      0.224790
O       7.77853      1.80962     14.90343         0.664198      0.441536      0.480705
O       7.81193     13.46186      2.47371         0.506739      0.184955      0.210016
O       7.80473     13.61078     14.80794        -0.058326     -0.377587      0.647871
O       7.84202      1.91283      6.72329        -1.083972      0.073022     -0.546109
O       7.82874     13.59655      6.51502        -0.062909      0.058776      0.677968
O       7.83092      2.01748     10.76381        -0.586642     -0.124303      0.377022
O       7.83088     13.60558     10.94434        -0.856299     -0.092637     -0.293467
O       7.75410      5.80909      2.47039         0.782591     -0.300716      0.136994
O       7.83019      5.90043     15.09184        -0.722515     -0.548360      0.110681
O       7.81938      5.93520      6.58044        -0.166295     -0.566809      0.289162
O       7.75698      5.78258     10.97468         0.346090     -0.031467     -0.248765
O       7.89318      9.78756      2.62070         0.147263     -0.387124     -0.446899
O       7.74824      9.76168     14.92322         0.108432      0.055102      0.236368
O       7.81346      9.71237      6.57987         0.631638      0.045024      0.213935
O       7.75720      9.64532     10.79446        -0.161615      0.282954     -0.033794
O      11.76187      1.79936      2.53282        -0.533023      0.400976      0.295369
O      11.81204      1.80607     14.97856        -0.734441      0.113061     -0.058676
O      11.74260     13.60950      2.58531        -0.909113      0.355487     -0.355698
O      11.69114     13.63671     14.95890        -0.149392     -0.192787      0.242470
O      11.75640      1.86836      6.75157        -0.365526      0.575119      0.021191
O      11.74952     13.62908      6.70833        -0.555291      0.112135      0.180322
O      11.62305      1.89875     10.93434         0.570889      0.438210     -0.585481
O      11.63660     13.58935     10.87723        -0.086477      0.102530     -0.509668
O      11.69954      5.84793      2.55702        -0.393922     -0.377716      0.002312
O      11.69643      5.83291     15.06832         0.297511     -0.160076      0.260539
O      11.67206      5.84357      6.76024         0.136382     -0.150473     -0.131015
O      11.73686      5.98339     11.12116        -0.537018     -0.516815     -0.997955
O      11.72533      9.62350      2.46776        -0.418936      0.234856      0.376807
O      11.70601      9.57645     14.94294         0.227993      0.436013      0.180510
O      11.82309      9.68047      6.80585        -1.218658      0.212817      0.018068
O      11.72843      9.66313     10.89099        -0.394618      0.263637     -0.183337
O       2.01715      3.89021      2.64610        -0.211587     -0.137375     -0.909894
O       1.90950      3.88086     14.78217         0.145642      1.081424      0.614975
O       1.95890     15.52426      2.45025         0.137577      0.926436      0.281743
O       1.95297      0.06888     14.86349        -0.270662     -1.004110      0.191900
O      13.65283      3.85238      2.71616        -0.418775     -0.473248     -0.385451
O      13.55402      3.80796     15.03177         0.721237      0.980322      0.094892
O      13.65754     15.52801      2.60645        -0.025752      0.546287     -0.093460
O      13.85220     15.56132     14.84993        -0.178628      0.589533      0.266095
O       2.01320      3.81027      6.66622        -0.294085     -0.315218     -0.183868
O       1.88315     15.43268      6.48322         0.371437      1.288129      0.805451
O      13.60019      3.89107      6.71128         0.173897     -0.023099      0.002236
O      13.69295     15.55188      6.73698        -0.199799      0.261975      0.025396
O       1.89014      3.77294     11.07756        -0.066763      0.745129     -0.891217
O       2.00021      0.00111     10.98897        -0.063323     -0.736865     -0.163373
O      13.53284      3.93765     10.77905         0.189907     -0.687397      0.174579
O      13.50225      0.00185     10.88086         0.631405      0.186861      0.116919
O       1.86015      7.80463      2.63721        -0.161611     -0.288192     -0.281312
O       1.94692      7.65630     14.97756         0.299347      1.725281     -0.023630
O      13.62627      7.73255      2.48683         0.339689      0.399043      0.335298
O      13.74591      7.69346     15.07766        -0.697447      0.248549     -0.094122
O       1.97383      7.73784      6.76527        -0.091940      0.300898     -0.336489
O      13.59248      7.79508      6.79009         0.532859     -0.889452     -0.120814
O       1.87949      7.82251     10.75797        -0.167017     -0.424023     -0.177667
O      13.78430      7.80154     10.83308        -0.186189      0.403793     -0.213560
O       1.81178     11.68908      2.50454         0.673589     -0.488475     -0.199746
O       1.93577     11.67153     14.87799        -0.059671      0.690450      0.561190
O      13.53967     11.66409      2.47449         0.612099     -0.406529     -0.005600
O      13.68782     11.69464     15.05087        -0.293996     -0.887799      0.031517
O       2.01777     11.68794      6.73824        -0.333209      0.105991     -0.346288
O      13.61779     11.62392      6.73082         0.322591      0.840609      0.224721
O       1.95300     11.69708     10.71850        -0.003425      0.428673      0.451475
O      13.57418     11.69952     10.93994         0.373955      0.078075     -0.372616
O       5.78019      3.94000      2.38626        -0.061301     -1.241766      0.120313
O       5.93295      3.87840     15.06691        -0.323615     -0.005779     -0.104686
O       5.91346     15.55112      2.44518        -0.171189      0.081969      0.401141
O       5.85630     15.47567     15.01865        -0.098484      1.102027     -0.123072
O       5.74711      3.84483      6.49812         0.415883     -0.157087      0.135855
O       5.93883     15.52701      6.53400        -0.127915      0.294406      0.134985
O       5.70492      3.90822     10.92089         0.618995     -1.244121     -0.051719
O       5.92196      0.02307     10.92552        -0.510562     -0.456025     -0.635025
O       5.91005      7.71572      2.37346         0.176397      2.173336      0.668358
O       5.80475      7.85047     15.00527        -0.032907     -0.790052     -0.035673
O       5.90483      7.71521      6.69819        -0.271526      0.280187     -0.119655
O       5.75540      7.69811     10.83753         0.325863      0.920246     -0.163220
O       5.84944     11.58676      2.56799        -0.124750      0.275158      0.287213
O       5.80840     11.70006     14.85901        -0.015760     -0.471457      0.470455
O       5.92900     11.61594      6.52377        -0.120746      0.690666      0.509400
O       5.86752     11.60198     10.86422         0.137337      0.724217     -0.301645
O       9.87081      3.84893      2.62466        -0.104354     -0.592664     -0.220216
O       9.74513      3.79591     15.28852         0.174962     -0.066531     -1.372359
O       9.60762     15.55956      2.60730         0.796658      0.283565      0.114880
O       9.75269     15.54083     15.04921        -0.027672      0.146317     -0.307850
O       9.64462      3.88400      6.80510         0.719100      0.934560     -0.419737
O       9.82832      0.02304      6.75109        -0.352384     -0.461949     -0.405645
O       9.72780      3.88418     10.91172         0.527955     -0.094392     -0.065015
O       9.69605     15.57390     10.83641        -0.100786      0.436345     -0.149420
O       9.74386      7.74451      2.35193        -0.121043      0.374114      0.437064
O       9.66842      7.77923     14.94692         0.339207     -0.386125      0.441084
O       9.77454      7.86384      6.75153         0.193688     -0.992711     -0.173672
O       9.65609      7.80952     11.05958         0.239718     -0.302002     -0.266204
O       9.86513     11.64965      2.34428        -0.146289     -0.151693      0.001299
O       9.78910     11.61994     15.05472        -0.204764      0.834220     -0.089773
O       9.84520     11.70777      6.74576        -0.277704     -0.224547      0.046090
O       9.70327     11.66241     10.68012        -0.162901      0.087133      0.448319
