  # total energy = -7879.58749631 
CRSYTAL
PRIMVEC
    15.6080000000000005    0.0000000000000000    0.0000000000000000
     0.0000000000000000   15.6080000000000005    0.0000000000000000
     0.0000000000000000    0.0000000000000000   16.6239999999999988
PRESSURE
-0.328078 -0.826518 -0.811918 -0.127025 -0.275154 0.078322
PRIMCOORD
320 1
Pb       4.00824      3.99845      4.16659        -0.124680     -0.569000     -0.484075
Pb       4.08061      4.10500      0.14185        -0.386746     -1.086187      0.070495
Pb       3.87099      0.03463      4.01705         0.156215     -0.371644      0.167667
Pb       3.77012     15.57399     16.62104         0.010841     -0.065495     -0.384709
Pb       0.09567      3.83650      4.16209        -0.359772      0.088244     -0.391944
Pb      15.45481      3.81820      0.00448         1.047976      0.023547     -0.459950
Pb      15.53952     15.56546      4.00262         0.161433      0.050849     -0.099156
Pb      15.47211     15.55622     16.57649         1.020364      0.366856      0.041335
Pb       3.65776      3.78951      8.35038         0.383188      0.026240     -0.135354
Pb       3.88998      0.07683      8.32154         0.162697     -0.096232     -0.625989
Pb      15.55406      3.78353      8.27605        -0.148069      0.505394      0.113721
Pb       0.14992     15.57710      8.19929        -0.553964      0.007838      0.200190
Pb       3.92434      3.95078     12.36139        -0.563191     -0.258129      0.728623
Pb       3.83703     15.39700     12.26913         0.098346      0.728989      0.873136
Pb      15.58597      3.75065     12.42289         0.099770      1.065863      0.659092
Pb      15.54121      0.31352     12.58422         0.276421     -0.792448      0.388620
Pb       3.80285      7.85234      4.34520         0.295502     -0.102089     -0.878813
Pb       3.81032      7.73766      0.01579         0.012399      0.350951     -0.233197
Pb       0.25810      7.91112      4.24321        -1.017653     -0.664050     -0.179325
Pb       0.03314      7.73314      0.02922         0.176961      0.191817     -0.568997
Pb       4.09594      7.68623      8.07177        -0.633505      0.098019      0.964872
Pb      15.41509      7.75579      8.56296        -0.086563      0.218508     -0.234548
Pb       3.92073      7.89581     12.44514        -0.232720     -0.298122     -0.233943
Pb      15.60646      7.97740     12.60787        -0.375954     -0.950867     -0.752666
Pb       3.83389     11.66926      4.08646         0.083286      0.168148     -0.370574
Pb       3.92971     11.59712     16.43635        -0.397611      0.355892      0.555357
Pb      15.59216     11.65719      4.07253        -0.153278      0.307608     -0.220377
Pb      15.53776     11.83235     16.55689         0.312023     -0.361369      0.092333
Pb       3.83021     11.62369      8.05478        -0.109109      0.129994      0.632098
Pb      15.56186     11.61702      8.34173         0.185982     -0.077791     -0.421366
Pb       4.06486     11.69503     12.29980        -0.668778     -0.412040      0.305426
Pb       0.20154     11.51241     12.29037        -0.085463      0.504793      0.339568
Pb       7.87311      3.74037      4.20588        -0.256734      0.332808     -0.479691
Pb       7.86103      4.01054      0.12710         0.010951     -0.232284     -0.406786
Pb       7.79205     15.42683      3.98509        -0.184316      0.535502      0.143423
Pb       7.92238      0.17894      0.11794        -0.817473     -0.237048     -0.645164
Pb       7.56742      3.99151      8.34168         0.607964     -0.317584     -0.284420
Pb       7.86872     15.50547      8.35851         0.223045      0.125690     -0.451882
Pb       7.64397      3.79517     12.39971         0.564358     -0.083088      0.358107
Pb       7.65007     15.56396     12.57063         0.444620      0.001140     -0.651961
Pb       7.69127      7.86822      4.16372         0.496658     -0.403448      0.031016
Pb       7.86628      8.03965     16.59443        -0.270767     -0.946564     -0.090865
Pb       7.80812      7.77009      8.26779        -0.215751     -0.266266     -0.425640
Pb       7.85752      7.55602     12.32232         0.075831      0.384058      0.012455
Pb       8.01271     11.68192      4.34641        -0.656302     -0.189976     -0.715290
Pb       7.65683     11.66787      0.04040         0.174356      0.335023     -0.547098
Pb       7.59127     11.74187      8.07680         1.016360     -0.141843      0.567660
Pb       7.66946     11.46701     12.40757         0.529054      0.612853     -0.096989
Pb      11.77159      3.95070      4.37057         0.209702     -0.644222     -0.662231
Pb      11.84028      4.09622      0.12108        -1.008808     -0.516173     -0.247791
Pb      11.48447     15.47763      4.16897         0.777713      0.472923     -0.150653
Pb      11.55245     15.52139      0.11065         0.317588      0.071490     -0.567299
Pb      11.78215      4.10054      8.39521        -0.384301     -0.736831     -0.745654
Pb      11.62588      0.12117      8.24567         0.189134      0.073843     -0.381349
Pb      11.86841      3.81498     12.62467        -0.212594      0.381361     -0.190456
Pb      11.92028     15.52424     12.41441        -0.914376      0.234896      0.079378
Pb      11.72509      7.42128      4.00131        -0.032419      1.461910      0.534683
Pb      11.35173      7.77455      0.02452         0.861968      0.068628     -0.260377
Pb      11.51892      7.97201      8.20635         0.800919     -0.557483      0.306266
Pb      11.52471      7.87507     12.68095         0.349756     -0.020686     -0.821669
Pb      11.58405     11.27567      4.28319         0.551662      1.185412     -0.651882
Pb      11.81349     11.80093     16.50964        -0.263557     -0.364638      0.435328
Pb      12.08203     11.96814      8.40922        -1.151070     -0.437834     -0.283281
Pb      11.63082     11.88530     12.40703        -0.106938     -0.365364      0.161407
Ti       1.97962      1.88001      2.19825        -1.015910      0.750572     -1.631134
Ti       2.02805      1.99725     14.67782        -1.406263      0.108269      0.714627
Ti       1.93733     13.60808      2.18807        -0.276462     -0.075906     -0.094176
Ti       2.01062     13.66960     14.44776        -0.590237      0.089881      1.278619
Ti      13.58412      1.94974      2.23947         0.329820      0.308082      0.289299
Ti      13.59892      1.91486     14.81331         0.273165      0.914587     -0.293922
Ti      13.56594     13.61153      2.33697         0.388286     -0.517399     -0.998282
Ti      13.70008     13.69159     14.58777        -0.352366     -0.989183     -0.001784
Ti       1.96267      1.91345      6.33484        -0.564450     -0.181890     -0.690863
Ti       1.92157     13.53181      6.24593        -0.223469      1.298674     -0.275439
Ti      13.70025      1.89130      6.28863        -1.552780      0.064232      1.249943
Ti      13.75071     13.65165      6.25250        -0.961777      0.235965      0.416795
Ti       1.92142      1.91757     10.59932        -0.002797      0.174275     -0.901810
Ti       1.92333     13.65525     10.40557        -0.128443     -1.299961     -0.039556
Ti      13.60753      1.98904     10.46820         0.136910     -0.057010      0.026955
Ti      13.80785     13.67563     10.47345        -1.432519      0.431671      0.835434
Ti       1.98705      5.80282      2.25716        -0.306215     -0.364188     -0.742304
Ti       1.94216      5.81578     14.64990        -0.875305     -0.616213     -1.043614
Ti      13.76113      5.86785      2.11987        -0.113376     -0.800726      1.084336
Ti      13.59466      5.89517     14.68400         0.686974     -0.525237     -0.730337
Ti       1.80443      5.82565      6.40653         0.231552     -0.136011     -0.351643
Ti      13.60628      5.91269      6.31993         0.430023     -0.659030      0.043940
Ti       1.85167      5.78806     10.55083        -0.252018      0.719988      0.483899
Ti      13.63650      5.88218     10.55614         0.331546      0.549564      0.850621
Ti       1.92205      9.71824      2.19895         0.346101      0.716308     -1.369403
Ti       1.94991      9.74622     14.63780        -0.184414     -0.021166      0.413835
Ti      13.67437      9.69081      2.28441        -0.748432      0.290977     -0.971886
Ti      13.64741      9.70015     14.70416        -0.281918      0.322446     -0.992606
Ti       1.83861      9.63866      6.46172        -0.326398      0.505651      0.139364
Ti      13.60344      9.72315      6.24042         0.750061      0.033017      1.589974
Ti       1.99181      9.65971     10.37196        -0.447253     -0.059769      0.460468
Ti      13.50120      9.78509     10.67141         0.556301     -0.972799      0.053403
Ti       5.82780      1.92161      2.17372         0.023033      0.766988      0.090988
Ti       5.82262      1.93509     14.71386         0.374296     -0.273623      0.197172
Ti       5.85822     13.54447      2.21272        -0.661340     -0.194817     -1.217469
Ti       5.86491     13.66215     14.73277        -0.010711     -0.064809      0.610444
Ti       5.87096      1.89203      6.30076        -0.512526     -0.056774      0.586773
Ti       5.71734     13.59603      6.24427         0.785346      1.216675     -0.139057
Ti       5.78198      1.91099     10.53340         0.781860      0.219986     -1.250895
Ti       5.83014     13.58587     10.46252         1.235928      0.119303      1.134350
Ti       5.90255      5.89888      2.20249         0.058200     -0.518636      0.691198
Ti       5.82954      5.79710     14.66732         0.489976     -0.236755      0.596851
Ti       5.76277      5.72232      6.23670         0.688522      0.351053      0.368743
Ti       5.78839      5.80848     10.48952         0.337606      0.527865     -0.586457
Ti       5.83903      9.70611      2.30738        -0.150966      0.622729     -0.632004
Ti       5.89082      9.60515     14.63640        -0.433625      1.167052     -0.140020
Ti       5.79877      9.66228      6.26295         0.971855      0.105857      1.673514
Ti       5.87154      9.61535     10.33509        -0.095244      0.109733     -0.046416
Ti       9.74590      1.97234      2.19185         0.280596      0.868014      0.206363
Ti       9.75057      1.94373     14.64721        -0.402529      0.712181      0.720690
Ti       9.78131     13.52385      2.17665         0.038093     -0.337306      0.156482
Ti       9.69131     13.65149     14.65230        -0.327888     -0.621225      0.189729
Ti       9.67708      2.01570      6.34377         1.027918     -0.475062      1.422215
Ti       9.80698     13.64068      6.39576         0.172183      0.211663      1.105537
Ti       9.78488      1.92256     10.56042        -1.028108     -0.487215     -0.583466
Ti       9.76479     13.69075     10.48168        -1.161061     -0.284014     -0.598914
Ti       9.74870      5.85136      2.28232        -1.072794     -0.849147     -0.899158
Ti       9.64718      5.75551     14.65377         0.184412     -0.192383     -0.046211
Ti       9.68226      5.80044      6.37825        -0.387818     -0.521065      0.084573
Ti       9.83127      5.64211     10.52482        -0.334015      1.661660     -0.018704
Ti       9.76111      9.70310      2.15959        -0.068174     -0.461743      1.046487
Ti       9.78710      9.84452     14.63110        -0.654947     -0.014012      1.270224
Ti       9.77468      9.80604      6.33014        -1.072251     -0.243344      0.345596
Ti       9.76186      9.75786     10.38943        -0.326353      0.358250      0.327229
O       1.85057      1.88816      0.35257         0.354530     -0.069658      1.239952
O       1.84806      1.90672     12.87474         0.206050     -0.132834     -0.847923
O       2.01020     13.56129      0.43754        -0.353985      0.226916     -1.089375
O       1.92198     13.55910     12.68231         0.155187      0.259065      0.409227
O      13.71589      2.10669      0.40746        -0.528394     -0.915022      0.359016
O      13.72658      1.94974     12.95428        -0.377565     -0.035343     -0.063521
O      13.45658     13.56405      0.49756         0.335987      0.505094     -0.370271
O      13.61804     13.64551     12.81311         0.061806      0.372677     -0.036078
O       1.84582      2.07853      4.53413         0.271239     -0.700536      0.633119
O       1.94683     13.66564      4.44000        -0.246807     -0.327436      1.069733
O      13.60114      1.72934      4.56709         0.341645      0.791179     -0.833300
O      13.73269     13.58773      4.48309        -0.015510      0.166236     -0.160878
O       1.89087      1.97135      8.73079         0.176486     -0.115604      0.183343
O       1.96372     13.65616      8.62257         0.012922     -0.219673     -0.228432
O      13.51654      1.93758      8.71851         0.401826      0.092355      0.077172
O      13.71513     13.69677      8.67339        -0.405109     -0.415843      0.201574
O       1.91353      5.99964      0.43845         0.141875     -0.265508      0.608593
O       2.03779      5.84026     12.80182         0.059829      0.207082      1.113953
O      13.68909      5.69764      0.31909        -0.119530      0.805804      0.296242
O      13.49366      5.73483     12.88208        -0.009041      0.146331      0.781621
O       1.77793      5.78587      4.56361         0.312486      0.449545      0.434505
O      13.58404      5.77742      4.50601        -0.277712      0.378877      1.119149
O       1.80964      5.59067      8.77022         0.327687      0.471377     -0.531803
O      13.64844      6.03783      8.74522        -0.165331     -0.716258     -0.449078
O       1.84666      9.71767      0.37856         0.360351     -0.266814      0.827087
O       1.77156      9.57395     12.81753         0.689620      0.395334      0.291391
O      13.47422      9.61853      0.53316         0.590012      0.328018     -0.890223
O      13.52979      9.63520     12.79514         0.520261      0.444130      1.619583
O       1.90503      9.62352      4.63069        -0.091205      0.360195     -0.275293
O      13.60492      9.84180      4.51697         0.375518     -0.292239     -1.184000
O       1.98302      9.74535      8.59379        -0.057655      0.261995     -0.349910
O      13.61143      9.73153      8.90179        -0.330572      0.046779     -0.915704
O       5.86660      1.99397      0.41520        -0.241865     -0.089418     -0.549514
O       5.88847      1.91113     12.91001        -0.540168     -0.042824     -0.229132
O       5.84613     13.45105      0.34756        -0.221350      0.317959      1.640504
O       5.84800     13.50481     12.93342        -0.284989      0.320723     -1.037882
O       5.72532      2.01375      4.52098         0.232669     -0.364486      0.367175
O       5.73744     13.70078      4.48331         0.321752      0.047398     -0.328583
O       5.70740      1.99970      8.67992         0.165352     -0.473384      1.110827
O       5.70750     13.52786      8.76020         0.202783      0.161836     -1.481397
O       5.94858      5.81300      0.39960        -0.699444      0.079388      0.028954
O       5.86471      5.84950     12.89525        -0.418518     -0.084480     -0.256193
O       5.72935      5.85301      4.45897         0.037645     -0.318178      0.392311
O       5.93577      6.03687      8.66392        -0.614171     -0.817767      0.761732
O       5.85702      9.67770      0.50056         0.162617      0.239248     -0.103479
O       5.92482      9.65049     12.84554        -0.455792      0.226512     -0.005265
O       5.76348      9.72385      4.55619         0.000787     -0.200450     -2.058525
O       5.82460      9.53158      8.51431         0.053308      0.506008      1.121572
O       9.70672      2.04588      0.39030         0.105082     -0.739875      0.889532
O       9.67806      2.10003     12.89358         0.279116     -0.539286     -0.039444
O       9.77510     13.67219      0.42614         0.222263     -0.182007     -0.280877
O       9.58335     13.63142     12.88759         0.448831     -0.147881      0.093308
O       9.59472      1.90235      4.57922         0.206801      0.008161     -1.015258
O       9.77331     13.52595      4.61036        -0.439998      0.515055     -0.932166
O       9.71817      1.84469      8.73746         0.001219     -0.086185      1.080820
O       9.74804     13.68041      8.62909        -0.128491      0.163039      0.936279
O       9.70016      5.81939      0.45926        -0.212514      0.240927      0.146945
O       9.56486      5.67429     12.82526         0.522651      0.428686      0.821283
O       9.81732      5.63861      4.59033        -0.232731      0.423921     -0.144502
O       9.64925      5.67201      8.72442         0.260809      0.596389     -0.027312
O       9.69070      9.62192      0.36531        -0.021530     -0.149181      0.084557
O       9.84665      9.88382     12.90232        -0.487291     -0.204275     -1.437492
O       9.72098      9.74881      4.49311         0.042768      0.196307      1.070029
O       9.83025      9.76525      8.58487        -0.213690     -0.403963      0.251605
O       3.84961      1.97275      2.47932         0.092068     -0.105939      0.079647
O       3.80504      1.92790     15.04404         1.469026      0.199715     -0.139940
O       3.83886     13.60398      2.44243         1.353568     -0.119474      0.421416
O       3.85082     13.76121     14.93534        -0.450893     -0.465286     -0.310592
O      15.58908      1.81681      2.48958        -0.790595      0.187864      0.197398
O      15.57377      1.95105     14.99420        -0.703251     -0.202569      0.118515
O      15.59239     13.69588      2.36385        -0.627348      0.322408      0.540678
O      15.58331     13.58136     14.93545         0.141570      0.480847      0.072205
O       3.78095      1.86275      6.65231         0.352349      0.262789      0.084841
O       3.83674     13.55902      6.50851        -0.161542     -0.059825      0.412292
O      15.53342      2.00637      6.76340         0.892862     -0.551522     -0.511956
O      15.58070     13.60079      6.63520         0.703780      0.087563     -0.068316
O       3.80030      1.95255     10.75938         0.864937     -0.407912      0.403130
O       3.82970     13.59102     10.77255         1.253928     -0.227081      0.114106
O       0.02359      1.80139     10.84769        -1.072429      0.414907     -0.289145
O      15.56128     13.45537     10.58268         1.073728      0.080658      0.490592
O       3.90718      5.79333      2.42886        -0.903546      0.046091      0.081406
O       3.87211      5.64442     15.10117         0.525340      1.135813     -0.620004
O      15.55872      5.73654      2.43098         0.242755      0.631509      0.030195
O      15.54694      5.81890     14.86736        -0.105437      0.627735      0.282266
O       3.85661      5.88145      6.53717        -0.368158      0.182736      0.220358
O      15.54374      5.92475      6.68320        -0.249613      0.104577     -0.090695
O       3.87217      5.65542     10.82815         0.039076      0.846744     -0.536903
O      15.59758      5.85671     10.90540         0.033784     -0.183202     -0.139288
O       3.86419      9.81148      2.48141        -0.463338      0.075760      0.306889
O       3.87185      9.66534     14.93778        -0.369361      0.115147     -0.142787
O      15.59233      9.67805      2.52525         0.152432     -0.350870      0.296005
O       0.00326      9.71767     15.01258        -0.998519     -0.029341     -0.301379
O       3.90892      9.66993      6.53481        -0.681674      0.059107      0.281008
O      15.51017      9.65003      6.74091         0.538387      0.207289     -0.293511
O       3.85186      9.65725     10.75782         0.968360      0.159079      0.097313
O      15.56941      9.70578     10.73015        -0.022355      0.219092      0.349218
O       7.71601      1.87807      2.48116         1.231932      0.053265      0.272300
O       7.77891      1.97351     14.99529         0.767228     -0.324801      0.101181
O       7.80943     13.52043      2.51526         0.058530      0.523226      0.076036
O       7.69697     13.63710     14.99465         1.191865     -0.288066      0.121842
O       7.73339      2.01105      6.58840        -0.775294     -0.520883      0.196250
O       7.72465     13.59990      6.66977        -0.221578      0.418514     -0.187708
O       7.73223      1.91515     10.91224        -0.152479      0.013321     -0.536833
O       7.77436     13.64363     10.77081        -1.103398      0.039206     -0.240824
O       7.74073      5.89958      2.54242        -0.181741      0.052819      0.192981
O       7.75610      5.75786     15.07322         0.085973      0.304316     -0.566479
O       7.68758      5.74245      6.58524         0.675059     -0.163501      0.065900
O       7.68887      5.75217     10.75679         0.201019      0.247734      0.207239
O       7.84741      9.63636      2.59306        -1.111379     -0.049293     -0.293287
O       7.76502      9.81670     14.89421        -0.510315     -0.352759      0.437044
O       7.75898      9.75012      6.45663         0.777928      0.149066      0.512207
O       7.78748      9.62721     10.63583        -0.149244      0.123018      0.164756
O      11.66235      1.96181      2.61901        -0.999346     -0.189707     -0.531302
O      11.71148      1.85681     15.01129        -0.545508     -0.317130     -0.162696
O      11.68375     13.45027      2.61237        -1.033816      0.478475     -0.129539
O      11.67758     13.50488     14.88405        -0.321029      0.936184     -0.020878
O      11.63772      2.06191      6.63347         0.441561     -0.647221     -0.116568
O      11.73778     13.66978      6.63534        -0.045319     -0.312736     -0.006742
O      11.70485      1.98702     10.87757         0.024845     -0.142278     -0.013573
O      11.61983     13.72939     10.80540         0.584615     -0.095709      0.050955
O      11.62192      5.73202      2.39682         0.981582      0.240952      0.332504
O      11.57173      5.96355     15.08691         0.645703      0.014075     -0.557301
O      11.57636      5.75954      6.69862         1.339592      0.154462     -0.116860
O      11.76286      5.58869     10.81338        -1.340323      0.106846     -0.257721
O      11.66159      9.60501      2.62188         0.012605      0.274641     -0.227303
O      11.63852      9.71927     14.92478         1.014497     -0.034016      0.233179
O      11.69754      9.79285      6.51536        -0.635119      0.091594      0.225054
O      11.59405      9.64988     10.84632         0.262126      0.004887     -0.080919
O       1.76913      3.90480      2.49692         0.868682     -0.092044     -0.184125
O       1.80057      3.95037     14.90002         0.437700     -0.559655      0.174926
O       1.99476     15.58744      2.46868        -0.045834      0.206772      0.148827
O       1.87437      0.02399     14.85644        -0.049309     -1.128766      0.187288
O      13.52285      3.86240      2.59624         0.553232     -0.264300     -0.268361
O      13.51416      3.93116     15.04079         0.000379     -0.428237     -0.509914
O      13.43664     15.59012      2.54456         0.371926     -0.257786     -0.321295
O      13.65107     15.58656     14.98992        -0.165626     -0.470896      0.082359
O       1.91279      3.93305      6.64785        -0.178634     -0.490295      0.106482
O       1.84565     15.56744      6.62793         0.289821      0.293001     -0.275659
O      13.69866      3.92891      6.57419        -0.418423      0.397353      0.263154
O      13.64398     15.57317      6.59542         0.242459      0.012518      0.148688
O       1.84761      3.77518     10.86790         0.174336      0.553584     -0.025364
O       1.88022     15.44893     10.74304         0.233641      1.476558      0.218456
O      13.81870      3.88786     10.78622        -0.436093     -1.112626     -0.102753
O      13.63128      0.01044     10.89071         0.295686     -0.283086     -0.377246
O       1.95475      7.80769      2.62589        -0.010846     -0.461309     -0.154838
O       1.92585      7.78309     14.98105         0.130672     -0.333798      0.042224
O      13.64001      7.71203      2.53094        -0.056387     -0.175763     -0.101483
O      13.63974      7.83532     14.89086        -0.028969     -0.259736      0.272004
O       1.89835      7.82857      6.67543         0.150155     -1.493063     -0.088341
O      13.49827      7.85837      6.61237         0.079351     -0.966916     -0.085303
O       1.86429      7.75607     10.59637         0.426503     -0.258252      0.379132
O      13.60972      7.70534     10.90403        -0.085787      0.908997     -0.017699
O       1.77272     11.66820      2.52502         0.607082     -0.514076      0.137681
O       1.90472     11.66794     14.74166         0.345575      0.339482      0.315729
O      13.76674     11.66785      2.46003        -0.201808     -0.455582      0.343971
O      13.64097     11.71851     14.96680         0.075226     -0.682707      0.079049
O       1.89267     11.68148      6.62136         0.007382     -0.530606     -0.035389
O      13.74242     11.66577      6.67145        -0.504641      0.214721      0.200159
O       1.96979     11.59916     10.72338        -0.118916      0.220437      0.125947
O      13.44390     11.74777     10.84705         0.378763     -0.194979     -0.515143
O       5.77608      3.91230      2.50298         0.259551      0.191381     -0.093259
O       5.93077      3.81429     14.96172        -0.851727      1.281657      0.181005
O       5.86549      0.01686      2.39603        -0.371560     -1.352355      0.455013
O       5.85669     15.59770     15.00699        -0.206307     -0.011920      0.044170
O       5.65668      3.84738      6.66425         0.213180      0.219768     -0.260244
O       5.68698     15.55574      6.62713         0.365265      0.303281      0.135996
O       5.78332      3.87795     10.79815         0.031072     -0.188751     -0.109791
O       5.76982      0.02611     10.76789        -0.193305     -1.289974      0.087181
O       5.66433      7.86027      2.65077         0.555522     -0.884594     -0.231791
O       5.69622      7.77725     14.96087         0.488658     -0.895848      0.040057
O       5.98731      7.72142      6.56120        -0.874381      0.235239     -0.289854
O       5.76305      7.78568     10.83243        -0.011936     -0.529676     -0.199652
O       5.87324     11.68969      2.66653        -0.193347     -0.143232     -0.415867
O       5.70609     11.65061     15.01294         0.550165     -0.382830     -0.459043
O       5.82751     11.67967      6.50231        -0.355686     -0.223244      0.343206
O       5.88339     11.56205     10.76821        -0.437880      0.467487     -0.207414
O       9.56734      3.89344      2.55595         0.167731     -0.988593     -0.224993
O       9.93496      3.90378     15.06973        -0.824933     -0.115177     -0.517370
O       9.73354     15.53039      2.36545         0.120655      0.229508      0.632421
O       9.61546     15.56570     15.07591         0.770542      0.219158     -0.349702
O       9.65851      3.82551      6.77206        -0.134225      0.857235     -0.422172
O       9.74204     15.57611      6.73310        -0.332493      0.240801     -0.493710
O       9.65249      3.86382     10.75355         0.017856     -1.307176      0.198329
O       9.64028     15.58365     10.87241         0.353077      0.504147     -0.118599
O       9.70121      7.70229      2.52961         0.247418      0.598718      0.127719
O       9.59577      7.83196     14.90206         0.342768     -0.407246      0.021177
O       9.72862      7.72917      6.62032        -0.195782      0.649494      0.004943
O       9.72663      7.69672     10.87858         0.246030      0.257193     -0.321168
O       9.66079     11.53929      2.38179         0.278272      1.296449      0.398068
O       9.63329     11.68866     15.14739         0.251172      0.532444     -0.612205
O       9.66815     11.72891      6.55664         0.031585     -1.096776      0.066041
O       9.75563     11.69311     10.69355        -0.052015     -0.481670      0.308457
