  # total energy = -7883.20802937 
CRSYTAL
PRIMVEC
    15.6080000000000005    0.0000000000000000    0.0000000000000000
     0.0000000000000000   15.6080000000000005    0.0000000000000000
     0.0000000000000000    0.0000000000000000   16.6239999999999988
PRESSURE
0.186256 0.017557 0.782237 -0.006068 0.233553 -0.055705
PRIMCOORD
320 1
Pb       3.87022      3.80040      4.10048        -0.095882      0.296187      0.127838
Pb       3.91820      3.89000     16.57564        -0.181035      0.101148      0.198879
Pb       3.90969     15.53423      4.04605         0.060573     -0.063170      0.541846
Pb       3.94070     15.57397     16.52944         0.000129      0.221773      0.322678
Pb       0.02313      3.91998      4.08734         0.107351     -0.256233      0.301614
Pb       0.02001      3.84184     16.60419        -0.082818     -0.098519      0.117777
Pb       0.00126     15.50130      4.09740        -0.117290     -0.017218      0.579492
Pb      15.59530     15.60094     16.54071         0.169882     -0.041335      0.571615
Pb       3.92974      3.84217      8.19938        -0.217376      0.316512      0.206717
Pb       3.86354     15.45921      8.15138        -0.127285      0.909086      0.296366
Pb      15.53129      3.89251      8.26255         0.339940     -0.330688      0.402700
Pb      15.49863     15.52149      8.27592         0.313519      0.123803     -0.295199
Pb       3.81780      3.81436     12.45383         0.216024     -0.086291      0.018372
Pb       3.92321      0.03836     12.55001        -0.010141      0.007482     -0.359132
Pb       0.03717      4.04894     12.55801        -0.445765     -0.112679     -0.178224
Pb       0.07749     15.60066     12.53269        -0.744600      0.174137     -0.570861
Pb       3.91981      7.80523      3.97141         0.160597      0.160000      0.800139
Pb       3.91633      7.79946     16.53774        -0.371027      0.025317      0.979132
Pb      15.45052      7.79272      4.08637         0.717349      0.258964      1.004038
Pb      15.58951      7.72158     16.53455        -0.121270      0.223294      0.261178
Pb       3.74658      7.76808      8.30284         0.910238     -0.355223     -0.106730
Pb      15.45827      7.69837      8.41410        -0.258328      0.699580      0.013219
Pb       3.91778      7.73802     12.34485        -0.457045      0.142582      0.606834
Pb      15.52958      7.77179     12.41665         0.243329      0.389971      0.217347
Pb       3.87000     11.70096      4.06115         0.012171     -0.468415      0.231341
Pb       3.82775     11.75015      0.02329        -0.191070     -0.278923      0.369604
Pb      15.54920     11.62052      4.05112         0.029892      0.223113      0.374466
Pb      15.57369     11.63640     16.53336        -0.039883      0.485947      0.311140
Pb       3.88096     11.77648      8.37649        -0.184980     -0.992864     -0.078517
Pb       0.06616     11.71811      8.25066        -0.489003     -0.345953      0.080624
Pb       3.82064     11.63463     12.40117         0.409189      0.287156      0.371264
Pb      15.58717     11.78611     12.50595        -0.040768     -0.385861     -0.476109
Pb       7.79555      3.83835      4.09847         0.018533     -0.025307      0.189793
Pb       7.82263      3.90346     16.55597        -0.317736      0.121001      0.718772
Pb       7.80053     15.60451      4.17013         0.046183     -0.333826      0.076211
Pb       7.77719      0.04055     16.54056        -0.284536      0.080692      0.539913
Pb       7.84023      3.78435      8.29613         0.072282      0.916792      0.290841
Pb       7.76777      0.03139      8.14183         0.593419     -0.129533      0.611297
Pb       7.85961      3.80084     12.44989         0.096203     -0.072482      0.438526
Pb       7.74346     15.57487     12.33127        -0.063678     -0.190020      0.887487
Pb       7.91162      7.78997      4.15569        -0.799027      0.600298      0.166084
Pb       7.62140      7.64156     16.61987         0.236940      0.234306      0.560038
Pb       7.78146      7.72856      8.19753        -0.440403     -0.455920      0.454921
Pb       7.65840      7.85980     12.41626         0.516978     -0.027315      0.667757
Pb       7.80321     11.68476      4.10947         0.745303     -0.244686      0.366565
Pb       7.74468     11.79899     16.55184         0.385175     -0.401211      0.601179
Pb       7.92830     11.70802      8.34385        -0.253810     -0.261845      0.280383
Pb       7.79062     11.77729     12.41199        -0.476789     -0.281608      0.122399
Pb      11.74640      3.78583      4.12405        -0.050237      0.280639      0.003913
Pb      11.65706      3.91176      0.11016         0.317628     -0.134961      0.245104
Pb      11.67813     15.48828      4.07919         0.505821      0.334273      0.955413
Pb      11.68996     15.59776     16.50216         0.055048     -0.788977      0.730964
Pb      11.70673      3.95455      8.34598        -0.484935     -0.206976      0.293860
Pb      11.79232      0.07263      8.35296        -0.527775     -0.470149      0.254024
Pb      11.68889      3.89330     12.35394        -0.072710     -0.133480      0.581779
Pb      11.47508      0.09165     12.41178         1.186720     -0.195634      0.202586
Pb      11.72235      7.98037      4.24966         0.116382     -0.307364      0.031280
Pb      11.74390      7.78202     16.58324        -0.468594      0.096795      0.297568
Pb      11.70764      7.68211      8.37958         0.108926      0.683381     -0.040012
Pb      11.65471      7.92963     12.44735         0.147446     -0.036557      1.072317
Pb      11.86130     11.65481      4.11374        -0.385399      0.090434     -0.045837
Pb      11.53128     11.60984     16.56502         0.395411      0.915292      0.205450
Pb      11.65862     11.78820      8.45041         0.722796     -0.055460     -0.187322
Pb      11.64950     11.66008     12.46679        -0.011372      0.021626      0.420528
Ti       1.97597      1.82817      2.25896        -0.352922      0.502138     -0.678579
Ti       1.98275      1.92051     14.69155        -0.240757      0.610672      0.390241
Ti       1.90360     13.59665      2.20020         0.182867     -0.200704     -0.864614
Ti       1.91852     13.67410     14.69223        -0.174638     -0.513127      1.272621
Ti      13.74387      1.87480      2.24383        -0.485575      0.614993      0.601299
Ti      13.65475      1.91011     14.71554         1.227899      0.842520     -1.494572
Ti      13.63533     13.70402      2.14043         0.354026     -1.388112     -0.373574
Ti      13.64400     13.67542     14.64986        -0.281330     -0.831960      0.413624
Ti       1.91432      1.97376      6.34603        -0.086830     -0.667130      0.254494
Ti       1.98663     13.55275      6.30604        -1.226891      0.474084      0.307515
Ti      13.63395      1.97833      6.42571        -0.384877     -0.981065     -1.184875
Ti      13.57152     13.64378      6.39763         0.299514     -0.355197      0.054851
Ti       1.85246      1.95289     10.49446         0.525788     -0.196296     -0.712451
Ti       1.93330     13.69186     10.48317        -0.212051     -0.931264      1.010258
Ti      13.66867      1.97742     10.55432        -0.194397     -0.434862      1.812706
Ti      13.57999     13.68736     10.63399        -0.048370      0.682610     -0.423844
Ti       1.96878      5.82112      2.21055        -0.128535      0.126672     -0.906736
Ti       1.84076      5.88451     14.78988         0.328304     -0.061652     -1.106234
Ti      13.68246      5.79370      2.25955        -0.798613      0.324412     -0.585561
Ti      13.54201      5.81031     14.76226         0.731850     -0.137106     -1.001887
Ti       1.76118      5.86474      6.41966         1.517911     -0.111075     -0.506466
Ti      13.53667      5.77534      6.40626         0.030303      1.931071     -0.073099
Ti       1.98838      5.83126     10.47658        -0.809557      0.451335      0.626934
Ti      13.54659      5.92775     10.69804         0.420888     -0.306579     -0.780613
Ti       1.91257      9.72194      2.17640         1.051708     -0.176562     -0.404313
Ti       1.91995      9.77378     14.64934         0.481421     -0.278252     -0.069131
Ti      13.70746      9.68632      2.13015        -0.483553      0.734549      0.115957
Ti      13.57584      9.81020     14.72946        -0.019387     -0.205649     -1.198432
Ti       1.96201      9.67704      6.50090        -0.626389      0.123483     -0.261431
Ti      13.65963      9.78498      6.44830        -0.098541     -0.376862      0.563903
Ti       1.94104      9.77535     10.54795        -1.504421      0.022831     -0.473717
Ti      13.58995      9.86547     10.59967         0.768040     -0.908106      0.185748
Ti       5.87753      1.87946      2.23589        -0.249095      0.213416     -0.026635
Ti       5.92961      1.96275     14.68715        -0.840906     -1.320546      0.085534
Ti       5.90024     13.64128      2.23702        -0.153131     -0.265104      0.021775
Ti       5.81607     13.55342     14.72866         0.226096      1.580383     -0.487232
Ti       5.83832      1.94939      6.38085        -0.104998     -0.617205     -0.907292
Ti       5.84774     13.50653      6.37273         0.673003      0.926741     -0.264901
Ti       5.80023      1.83127     10.49709        -0.132010      1.474883     -0.122835
Ti       5.77420     13.63815     10.46398         0.107633     -0.841003      2.732445
Ti       5.87481      5.77568      2.35753        -0.541667      0.614490     -1.033316
Ti       5.76378      5.79421     14.64688        -0.132654      0.069479      0.834510
Ti       5.75505      5.76320      6.29174         0.084653      1.481191      0.387553
Ti       5.86831      5.68056     10.58765        -0.177022      0.803481     -1.530048
Ti       5.88742      9.78950      2.22568         0.112783     -0.918512      0.636384
Ti       5.77355      9.74984     14.73138         0.291590     -0.491906     -0.512683
Ti       5.91028      9.72164      6.47183        -0.772531     -1.510539     -1.296151
Ti       5.82989      9.69776     10.57273         0.226984      0.461215      0.109924
Ti       9.73430      1.91294      2.25303         1.010263      0.155088     -0.180202
Ti       9.86722      1.97333     14.79721        -1.380747      0.706658     -1.510829
Ti       9.79079     13.61274      2.30101         0.047867     -0.341526      0.069362
Ti       9.72403     13.71390     14.65501         0.224849     -1.697620     -0.603373
Ti       9.77892      2.01669      6.38819         0.749154     -0.480622      0.249854
Ti       9.73978     13.68691      6.44845         1.049765     -0.159558     -0.511980
Ti       9.70073      1.94156     10.57650         0.353645     -0.094978     -0.881033
Ti       9.71903     13.59433     10.57416         0.742753      1.051032     -1.246760
Ti       9.74944      5.85212      2.28237         0.728711      0.298146     -0.165928
Ti       9.76508      5.84250     14.75114        -0.363461      0.316822     -0.873162
Ti       9.70519      5.88688      6.30379         0.288305     -0.531452      1.059593
Ti       9.65544      5.89348     10.68967        -0.025344     -0.358604     -1.096935
Ti       9.76995      9.69461      2.16678        -0.081072      0.527809      1.956151
Ti       9.62520      9.70471     14.71193         1.179163     -0.078687      0.422133
Ti       9.82492      9.77947      6.49958         0.509533     -0.041106     -0.851234
Ti       9.71540      9.69523     10.51970         0.678655      0.125544     -0.049854
O       1.90799      1.96185      0.46242         0.292746     -0.312342      0.469060
O       1.92612      1.85652     12.91563         0.125352     -0.064173     -0.283216
O       2.02228     13.59675      0.39295        -0.179917      0.255353      0.838777
O       1.83210     13.77346     12.95030         0.229861     -0.319181     -0.633196
O      13.83762      2.01397      0.50480        -0.451395     -0.429627     -0.786620
O      13.72034      1.84668     12.90281        -0.227464      0.290248      1.525404
O      13.62636     13.59365      0.37634        -0.139832      0.526303      0.160109
O      13.76432     13.64678     12.88902        -0.070124      0.082409     -0.354986
O       2.00597      1.89189      4.55079        -0.182566      0.006361      0.457235
O       2.01243     13.59750      4.53764        -0.360607     -0.014537      0.019408
O      13.65815      1.87572      4.64113        -0.170827      0.417538      0.082156
O      13.58341     13.61525      4.61071         0.287301      0.056290      0.137272
O       1.84066      1.96672      8.69021         0.166044      0.285063      1.155605
O       2.06965     13.37305      8.72949        -0.146404      0.918510     -0.022628
O      13.58150      2.01045      8.81137         0.362824     -0.091758     -1.022313
O      13.38188     13.65244      8.85206         0.824247      0.241319     -0.090974
O       1.79067      5.71401      0.37247         0.314549      0.429720      1.293934
O       1.75736      6.07402     12.99283         0.518089     -0.724229     -0.223392
O      13.82973      5.89452      0.46220        -0.611560     -0.208058      0.260292
O      13.57731      5.79844     12.94152        -0.302118      0.134211      0.528466
O       2.03360      5.85965      4.65856        -0.733119     -0.001283     -0.238174
O      13.55963      5.88313      4.66113         0.080188     -0.156883     -0.708037
O       1.83702      5.80206      8.72143         0.222283     -0.425106      0.285231
O      13.46849      6.08711      8.87571         0.647020     -0.949291      0.221353
O       2.02620      9.80137      0.43004        -0.470971     -0.166641     -0.000618
O       2.06973      9.79686     12.84983        -0.361212     -0.408510      0.919963
O      13.84557      9.67349      0.35029        -0.546709      0.196289      0.382768
O      13.60396      9.76537     12.90313        -0.033446      0.374781      1.108590
O       1.92771      9.57625      4.76061         0.190732      0.253650     -1.190384
O      13.61368      9.73042      4.65581         0.177014      0.365558     -0.697295
O       1.77979      9.83796      8.73999         0.649259      0.168618      0.552903
O      13.49061      9.70111      8.85737         0.439207      0.048427     -0.687803
O       5.88779      1.86826      0.46852        -0.131479      0.301999     -0.054696
O       5.78474      1.74942     12.93427         0.180079      0.528565     -0.457915
O       5.83580     13.48000      0.47005         0.201388      0.515692     -0.146999
O       5.92389     13.64625     12.95554        -0.048929     -0.112652      0.242721
O       5.87103      1.85494      4.57040         0.086447      0.155572      0.695376
O       6.08415     13.65290      4.63201        -0.589172     -0.300105      0.153741
O       5.87575      1.95130      8.69601        -0.122759     -0.154688      0.472156
O       5.69717     13.55857      8.77547        -0.012319      0.052689     -2.240086
O       5.92498      5.61544      0.54473        -0.065813      0.456948     -0.338946
O       5.57515      5.85954     12.91641         0.820790     -0.089712      0.201707
O       5.76604      5.84542      4.47513        -0.089319     -0.547197      1.321135
O       5.81486      5.77436      8.77252         0.046200     -0.401070      1.330444
O       5.83712      9.75225      0.48371         0.379861      0.132121     -0.684092
O       5.82121      9.71404     12.91682        -0.088437     -0.174033      0.875675
O       5.90450      9.57832      4.66840         0.026424      0.794298      0.513073
O       5.94061      9.61010      8.85833        -0.216650      0.310087     -1.198923
O       9.73052      1.86606      0.45451         0.454930     -0.079972     -0.157110
O       9.77744      2.03560     12.98217         0.037181     -0.303275      0.876982
O       9.90552     13.68442      0.56421        -0.323652      0.254858     -1.180539
O       9.58223     13.49230     12.86436         0.110958      0.601580      0.321056
O       9.90517      2.04665      4.61540        -0.406097      0.069387     -0.486788
O       9.82250     13.59130      4.63882        -0.199112     -0.076032      0.164955
O       9.70599      1.86562      8.79722        -0.299653      0.142339     -0.194550
O       9.80545     13.78339      8.74981        -0.283297     -0.433953      1.027797
O       9.61506      6.13107      0.51340         0.221582     -0.853754      0.188244
O       9.74526      5.63608     12.99223         0.120130      0.468021     -0.265608
O       9.91932      5.83561      4.56465        -0.708377     -0.412678     -0.056952
O       9.47578      5.87224      8.92201         0.485685      0.117220      0.042807
O       9.68028      9.67771      0.46685         0.489160     -0.092564     -1.859918
O       9.84811      9.77091     12.98890        -0.530206      0.374271     -0.785682
O       9.80416      9.85851      4.68839         0.052120     -0.250659      0.496362
O       9.74544      9.45760      8.76264        -0.281436      0.809569      0.092741
O       3.93717      1.77704      2.52204        -0.458252      0.510703      0.035260
O       3.90708      1.88651     14.98569        -0.498413      0.315905      0.210808
O       3.95898     13.51375      2.52168        -0.188012      0.408501      0.256263
O       3.93503     13.60995     15.03054        -0.375323      0.323000     -0.340471
O       0.07540      1.71800      2.63158        -0.420109      0.884000     -0.147343
O       0.03613      1.94634     15.06234        -0.326341     -0.505146     -0.344694
O       0.00989     13.65184      2.44939         0.176723     -0.014998      0.333338
O      15.58206     13.56952     15.02973         0.611559      0.550810     -0.174196
O       3.87095      1.95620      6.61722         0.320411      0.014581      0.204893
O       3.88401     13.67879      6.53056         0.705790     -0.284769      0.530932
O      15.49634      1.98468      6.64542         1.067332     -0.226322      0.462130
O      15.60455     13.66827      6.71903         0.100615      0.026274      0.024245
O       3.84560      1.93855     10.91066         0.445498      0.001478     -0.282028
O       3.87011     13.63667     10.93253         0.154182     -0.076624     -0.363466
O       0.00651      1.94640     10.83760         0.303295     -0.084616     -0.035288
O      15.53597     13.63163     10.78198         1.019022     -0.174137     -0.036585
O       3.92455      5.78956      2.50126        -1.557943     -0.275902     -0.123841
O       3.80071      5.91604     15.10809         1.234982     -1.015132     -0.342253
O      15.58383      5.96022      2.64424         0.820877     -0.799560     -0.106406
O      15.46931      5.88236     14.95299         0.728414      0.356904      0.260387
O       3.83807      5.73256      6.72539         0.084782      0.149940      0.016371
O      15.48182      5.73313      6.71397         0.232632      0.441012      0.071388
O       3.90431      5.83355     10.97185        -0.909750     -0.112192     -0.933597
O      15.46309      5.87460     10.88559         1.120011      0.024460     -0.069085
O       4.00421      9.83869      2.52677        -1.006928     -0.254428      0.266927
O       3.89706      9.71263     15.13035         0.509898      0.326180     -0.730345
O       0.05791      9.72470      2.55963        -0.755890     -0.145268     -0.057997
O       0.06271      9.74520     14.93518        -0.374363      0.026291     -0.084886
O       3.84321      9.55392      6.82933         0.347995      0.727158     -0.034129
O      15.52542      9.83360      6.70974         0.302572     -0.018089      0.338922
O       3.87088      9.83617     10.77523         0.289216     -0.786407     -0.115215
O      15.56504      9.87669     10.84963        -0.014391     -0.281894      0.271964
O       7.85970      1.89295      2.53242        -0.157741      0.024487      0.321334
O       7.79358      1.99203     15.08775         0.719479     -0.253154     -0.468295
O       7.81518     13.72217      2.59199         0.860122     -0.252832     -0.252487
O       7.79300     13.73909     15.20508         0.025514     -0.593296     -0.827657
O       7.85591      2.09244      6.64522        -0.716346     -0.769079     -0.097657
O       7.83964     13.49483      6.83484        -1.095015      0.174639     -0.325121
O       7.77085      1.85266     10.97049        -0.709351      0.494980     -0.600393
O       7.75311     13.61349     10.76339        -0.129264     -0.024674      0.032324
O       7.73083      5.77462      2.66449         1.739216      0.215785      0.023327
O       7.80393      5.71174     15.03264        -0.621316      0.774713     -0.401005
O       7.71100      5.71613      6.70268         1.028495      0.198502     -0.754225
O       7.74198      5.74438     11.05888        -0.028779      0.498405      0.033861
O       7.89050      9.64564      2.52318        -0.375118      0.314545      0.310096
O       7.79451      9.61402     15.01983        -0.691082      0.242422     -0.144122
O       7.77944      9.73101      6.76721         0.251903      0.302666     -0.003254
O       7.87765      9.76993     10.94408        -0.851310      0.062279     -0.064855
O      11.82132      2.09207      2.53889        -0.654233     -0.780681     -0.447818
O      11.74686      1.98591     15.05760        -0.150776     -0.426267      0.211136
O      11.79694     13.63525      2.53564        -0.868278      0.099291      0.262749
O      11.70506     13.64410     14.84015        -0.717598      0.282238      0.451183
O      11.69348      1.99321      6.80246        -0.069125     -0.362787     -0.133190
O      11.69462     13.75662      6.77166        -0.773202     -0.451096     -0.345750
O      11.64786      1.89743     10.84982         0.496684      0.289533      0.150248
O      11.64399     13.78654     10.93903        -0.467208     -0.350307      0.315715
O      11.71659      5.76992      2.41741         0.116084      0.006696     -0.086751
O      11.66730      5.76987     15.22502         0.533758     -0.119244     -0.009752
O      11.63415      5.87547      6.83120        -0.030539     -0.237944     -0.258037
O      11.54024      5.77507     10.79747         1.123539      0.105084      0.535676
O      11.81955      9.71658      2.53946        -0.500850      0.276671     -0.457835
O      11.68692      9.91477     15.02049         0.004325     -0.561053      0.206090
O      11.69010      9.76614      6.76200        -0.173518     -0.224340     -0.122222
O      11.68442      9.76421     10.94567        -0.888930     -0.222684     -0.075402
O       1.87655      3.82832      2.51051         0.233944      0.413181      0.337723
O       1.88809      3.92526     14.90552         0.311154     -0.482576      0.053671
O       1.94296     15.48606      2.60159         0.553751      0.329924     -0.293044
O       1.91806     15.59875     15.04903         0.224422     -0.253311     -0.148932
O      13.77169      3.89925      2.57010         0.382219     -0.062707      0.061706
O      13.74106      3.85918     15.01880        -0.661139      0.137816      0.056600
O      13.68593     15.58580      2.48821        -0.215771      0.116197      0.102733
O      13.66467     15.57094     15.07475         0.052010      0.671186     -0.133139
O       1.81356      3.87670      6.66773         0.225803     -0.287793      0.066576
O       1.95656      0.00342      6.85647        -0.488281     -0.276256     -0.859644
O      13.56603      3.93430      6.72903        -0.129094     -0.647314      0.220064
O      13.56460     15.57858      6.73892         0.662149      0.686951      0.293682
O       1.96286      3.93567     10.92855        -0.309956     -0.169498     -0.209802
O       1.98738     15.53439     10.75153        -0.399368      0.743791     -0.082363
O      13.72629      3.90292     10.98405        -0.707116     -0.131844     -0.525308
O      13.64827      0.02327     10.89278         0.111225      0.174165     -0.238484
O       1.96954      7.76413      2.40659         0.207338     -0.144746      0.153567
O       2.03155      7.80828     15.08035        -0.717298      0.595877     -0.062531
O      13.66868      7.81293      2.57137        -0.039488     -0.034170     -0.237473
O      13.46559      7.85415     15.00489         0.632503     -0.688470     -0.118688
O       1.76313      7.75063      6.90367         0.243678     -0.374492     -0.360274
O      13.65394      7.84084      6.75010        -0.172816     -0.586590     -0.011567
O       1.84235      7.79865     10.69009         0.531273     -0.199183      0.400420
O      13.56579      7.82978     11.04734         0.061782     -0.443054     -0.628002
O       1.95241     11.63866      2.48451        -0.039054      0.352562      0.588412
O       1.99524     11.73889     15.09393        -0.138528     -0.534840     -0.905139
O      13.76250     11.73078      2.48091        -0.183972     -1.035930      0.178612
O      13.65269     11.73885     15.02084         0.170566     -0.499279     -0.077726
O       1.92529     11.67095      6.61843         0.407317      0.430208      0.166265
O      13.57005     11.74191      6.78288        -0.010554      0.048994     -0.137737
O       1.94793     11.67696     11.02418        -0.127383      0.938172     -0.665530
O      13.44323     11.71085     10.88353         0.551471      0.869605      0.080821
O       5.81838      3.79388      2.62244         0.198977     -0.296515      0.080272
O       5.79443      3.82918     15.00798        -0.164710      1.155870     -0.222346
O       5.87809     15.55816      2.54183         0.046910     -0.148550      0.047519
O       5.80193      0.01904     15.03327         0.366857     -0.745674      0.317114
O       5.85756      3.83380      6.68711        -0.491802      0.086893     -0.302142
O       5.87582     15.53722      6.69271         0.106050      0.185026     -0.020428
O       5.88128      3.83949     10.92228        -0.438948     -0.623684     -0.038428
O       5.79208      0.00834     10.79392         0.067644     -1.142842     -0.051873
O       5.87366      7.75255      2.53523         0.098103      0.340033     -0.307501
O       5.80618      7.74228     15.10733         0.175945     -0.269440     -0.676089
O       5.78679      7.70614      6.69110         0.238565     -0.170911      0.155198
O       5.93417      7.74646     10.89386        -0.532323      0.228692      0.034845
O       5.98705     11.71074      2.66729        -0.149697     -0.404940     -0.360282
O       5.87506     11.66315     15.03765         0.266390     -0.257473     -0.308679
O       5.71566     11.62877      6.75595         0.315548      0.423661     -0.238530
O       5.79321     11.64593     10.90287         0.346765      0.711464     -0.329539
O       9.74468      3.90700      2.42219        -0.163015     -0.190518      0.273898
O       9.83331      3.90251     15.06881        -0.120631     -0.703710      0.763148
O       9.88250      0.00566      2.64963        -0.478037      0.247252     -0.375598
O       9.73453     15.56877     14.89817         0.297644      1.106346      0.478694
O       9.89057      3.87631      6.82296        -0.800473      0.787715     -0.359512
O       9.60564     15.57230      6.56750         0.038010      0.639035      0.238386
O       9.70454      3.81705     10.90037        -0.350905      0.691411     -0.050395
O       9.68659      0.02319     10.95041        -0.181986     -0.686443      0.015603
O       9.84279      7.80101      2.77814        -0.222402     -0.060365     -0.845413
O       9.99523      7.76911     14.89252        -0.787005      0.181797      0.263646
O       9.77469      7.75433      6.62984        -0.589707     -0.224090     -0.124304
O       9.77068      7.85622     11.04503        -0.690889     -1.148810     -0.362025
O       9.83032     11.69467      2.48264        -0.252993     -0.342437      0.124596
O       9.68856     11.75084     15.02981        -0.281868     -0.293400      0.325215
O       9.80669     11.66519      6.94295        -0.407744      0.305553     -0.362464
O       9.87201     11.70038     10.69700        -0.620335     -0.103830      0.155330
