  # total energy = -7883.13008409 
CRSYTAL
PRIMVEC
    15.6080000000000005    0.0000000000000000    0.0000000000000000
     0.0000000000000000   15.6080000000000005    0.0000000000000000
     0.0000000000000000    0.0000000000000000   16.6239999999999988
PRESSURE
0.251659 -0.014679 0.607399 -0.020698 0.251953 -0.051348
PRIMCOORD
320 1
Pb       3.87514      3.79911      4.10037        -0.110936      0.481504      0.055652
Pb       3.92655      3.89569     16.58246        -0.255532      0.141016      0.227299
Pb       3.90916     15.53801      4.04083         0.018139     -0.098095      0.500435
Pb       3.93621     15.57345     16.52997        -0.025769      0.170637      0.294267
Pb       0.02333      3.91696      4.08605         0.115959     -0.149960      0.184076
Pb       0.01661      3.83873     16.60336         0.116774     -0.168775      0.168406
Pb      15.60703     15.49949      4.08973        -0.078840      0.062242      0.531020
Pb      15.59398     15.59918     16.54155         0.188501      0.103679      0.487839
Pb       3.91941      3.83680      8.20222        -0.013943      0.337713      0.178775
Pb       3.86175     15.46684      8.14926         0.096396      0.801247      0.350098
Pb      15.52569      3.88881      8.26160         0.330249     -0.293471      0.389207
Pb      15.49914     15.52344      8.26964         0.284915      0.109399     -0.201385
Pb       3.81271      3.81680     12.45520         0.173171      0.006843     -0.029129
Pb       3.91982      0.03319     12.55155        -0.095840     -0.076773     -0.462165
Pb       0.04006      4.04944     12.55829        -0.365676     -0.148037     -0.224012
Pb       0.07806      0.00236     12.54190        -0.640580      0.252780     -0.505801
Pb       3.91557      7.80988      3.97313         0.181974      0.041271      0.786000
Pb       3.91635      7.79714     16.53362        -0.404567     -0.001306      1.027188
Pb      15.45318      7.79715      4.08599         0.789939      0.173914      1.180631
Pb      15.58786      7.72354     16.53148         0.024238      0.119279      0.240988
Pb       3.74764      7.76685      8.30276         0.989491     -0.444229     -0.044684
Pb      15.44796      7.69807      8.42531        -0.097428      0.662509     -0.180590
Pb       3.92033      7.73829     12.34487        -0.424803      0.168038      0.653559
Pb      15.52611      7.77350     12.42138         0.382966      0.401139      0.135910
Pb       3.86809     11.70416      4.05620        -0.139280     -0.455092      0.138468
Pb       3.82636     11.75035      0.01905        -0.100811     -0.288593      0.460456
Pb      15.54544     11.62112      4.04593         0.119098      0.199412      0.564314
Pb      15.57196     11.64159     16.53302         0.029963      0.538282      0.340003
Pb       3.87775     11.77936      8.37113         0.022858     -1.038398     -0.093974
Pb       0.06428     11.71511      8.24892        -0.564919     -0.225461      0.109436
Pb       3.82398     11.63344     12.39720         0.439347      0.312324      0.432767
Pb      15.59581     11.78193     12.50342        -0.020537     -0.413547     -0.438764
Pb       7.79370      3.82916      4.10127        -0.125483      0.108650      0.300719
Pb       7.82171      3.90990     16.55379        -0.368286      0.009962      0.549555
Pb       7.79502     15.60152      4.16639         0.067437     -0.367639      0.298945
Pb       7.77825      0.04925     16.54464        -0.257161     -0.136108      0.321903
Pb       7.83454      3.78550      8.30430         0.040524      0.825069     -0.082303
Pb       7.77327      0.03193      8.14421         0.534509     -0.110341      0.569078
Pb       7.85841      3.79416     12.44267         0.015277      0.026375      0.603863
Pb       7.74055     15.57425     12.33466        -0.040633     -0.259465      0.784058
Pb       7.90727      7.79303      4.15743        -0.796147      0.504838      0.132559
Pb       7.61880      7.64662     16.61589         0.231935      0.281593      0.608308
Pb       7.78436      7.72791      8.19529        -0.499672     -0.361463      0.550709
Pb       7.66169      7.85330     12.41409         0.462604     -0.039654      0.527129
Pb       7.80306     11.68892      4.11183         0.921083     -0.275027      0.456841
Pb       7.73949     11.80237     16.54902         0.409644     -0.490906      0.700999
Pb       7.92374     11.71257      8.33893        -0.287325     -0.334242      0.395101
Pb       7.79003     11.77122     12.40974        -0.465658     -0.249467      0.083647
Pb      11.75454      3.78416      4.13282         0.028510      0.340436      0.056892
Pb      11.65879      3.92089      0.11390         0.469335     -0.197562      0.182773
Pb      11.67088     15.48356      4.07594         0.695502      0.460935      1.233364
Pb      11.68321     15.59722     16.50237         0.266517     -0.847281      0.691787
Pb      11.70932      3.96316      8.35187        -0.487357     -0.338900      0.292547
Pb      11.78872      0.07978      8.35128        -0.569842     -0.452273      0.281652
Pb      11.69467      3.89021     12.35934        -0.105486     -0.173208      0.576561
Pb      11.47654      0.09049     12.40975         1.067150     -0.124546      0.096386
Pb      11.72695      7.97433      4.24867         0.047903     -0.292198      0.060614
Pb      11.73715      7.78472     16.58279        -0.531579      0.017273      0.463314
Pb      11.70752      7.68626      8.37858         0.049313      0.718850     -0.053390
Pb      11.64573      7.93692     12.45147         0.087409     -0.146223      1.017602
Pb      11.86517     11.63984      4.11688        -0.375660      0.051952      0.093607
Pb      11.53384     11.61056     16.56055         0.300023      1.018151      0.260921
Pb      11.66632     11.79530      8.45722         0.728813      0.014604     -0.298635
Pb      11.64564     11.66705     12.46298        -0.156079      0.119593      0.387943
Ti       1.98056      1.84234      2.27259        -0.309789      0.583923     -1.302347
Ti       2.00440      1.92302     14.69397        -0.762512      0.603485      0.137805
Ti       1.89458     13.60862      2.20257         0.375641     -0.328477     -0.758642
Ti       1.91742     13.66829     14.68890        -0.172821     -0.341662      0.483232
Ti      13.74072      1.86833      2.25732        -0.357366      0.856349      0.110132
Ti      13.65824      1.91466     14.70755         1.393932      0.599866     -1.399685
Ti      13.63493     13.69613      2.14776         0.433666     -1.367452     -1.013952
Ti      13.64329     13.66581     14.65470        -0.256817     -0.587701      0.316438
Ti       1.91215      1.95656      6.34811        -0.051214     -0.447918      0.195690
Ti       1.98369     13.54841      6.29315        -1.200171      0.261996     -0.066670
Ti      13.63846      1.96998      6.42627        -0.690852     -0.785190     -0.754239
Ti      13.57684     13.64386      6.39521         0.076107     -0.409612      0.243093
Ti       1.86096      1.94585     10.50522         0.555747     -0.247319     -0.313897
Ti       1.92794     13.68324     10.47505        -0.104890     -0.605330      1.418423
Ti      13.67498      1.98088     10.55378        -0.196197     -0.376674      1.525950
Ti      13.58012     13.69574     10.64854        -0.086268      0.666835     -0.844260
Ti       1.96223      5.83029      2.21402        -0.063160     -0.096796     -0.903738
Ti       1.84678      5.89830     14.76794         0.345997     -0.199387     -1.061008
Ti      13.68215      5.80634      2.26274        -0.790884      0.023434     -0.137874
Ti      13.54901      5.79818     14.75310         0.773431     -0.128703     -0.988389
Ti       1.75959      5.85283      6.41472         1.520075     -0.184047     -0.520079
Ti      13.53548      5.77660      6.40350         0.088522      1.796386     -0.178974
Ti       1.97920      5.82475     10.48923        -0.787851      0.646940      0.655709
Ti      13.55127      5.94516     10.69380         0.350933     -0.676184     -0.336184
Ti       1.90657      9.71793      2.18956         1.226736     -0.010785     -0.999224
Ti       1.91825      9.77809     14.65486         0.683463     -0.214162      0.010937
Ti      13.70291      9.67644      2.12778        -0.333513      0.829388      0.953476
Ti      13.57746      9.79259     14.74454         0.090904      0.075030     -1.408932
Ti       1.97162      9.66882      6.50542        -0.584066      0.077556     -0.588033
Ti      13.67062      9.78023      6.45228        -0.247020     -0.341374      0.401016
Ti       1.94556      9.77861     10.53695        -1.379504     -0.241942     -0.182416
Ti      13.59304      9.86850     10.60976         0.723812     -0.861736     -0.337927
Ti       5.89482      1.88210      2.22575        -0.721849      0.393137     -0.172123
Ti       5.93587      1.94813     14.67659        -0.736234     -1.123043      0.139573
Ti       5.90936     13.63611      2.24622        -0.458630     -0.332977     -0.359333
Ti       5.81486     13.54293     14.71609         0.254510      1.476922     -0.190110
Ti       5.82884      1.92815      6.36828         0.194396     -0.221604     -0.391004
Ti       5.85045     13.49091      6.36166         0.627117      1.071709      0.550639
Ti       5.80218      1.84120     10.50523        -0.291028      1.147460     -0.448000
Ti       5.77708     13.64517     10.46801         0.235727     -0.888364      2.472285
Ti       5.87316      5.78781      2.34069        -0.724514      0.489177     -0.526894
Ti       5.77479      5.79736     14.66232        -0.247092     -0.079909      0.353846
Ti       5.75332      5.76833      6.28522         0.123823      1.219218      0.288381
Ti       5.85506      5.67750     10.59123        -0.227875      0.881965     -1.490391
Ti       5.90479      9.78653      2.23026        -0.225818     -0.925635      0.051988
Ti       5.77115      9.74092     14.71970         0.225009     -0.263141     -0.394060
Ti       5.91089      9.71500      6.44695        -0.638967     -1.501088     -0.562915
Ti       5.83127      9.69782     10.57822         0.397110      0.449029     -0.552501
Ti       9.73544      1.90832      2.25172         1.097245      0.293687     -0.290376
Ti       9.87707      1.96236     14.80896        -1.457812      0.775014     -1.492648
Ti       9.79658     13.61385      2.30417         0.047270     -0.604929     -0.350776
Ti       9.72199     13.71942     14.65343         0.160367     -2.055744     -0.762185
Ti       9.78534      2.01243      6.39023         0.473849     -0.392287      0.882171
Ti       9.73817     13.67995      6.44597         1.077751      0.051097     -0.449432
Ti       9.69742      1.94936     10.58294         0.560259     -0.313383     -1.380734
Ti       9.72948     13.59029     10.56746         0.312609      1.032451     -1.326042
Ti       9.74690      5.84659      2.27365         0.657969      0.338567      0.149009
Ti       9.77723      5.84680     14.76538        -0.512820     -0.069625     -1.058435
Ti       9.70308      5.88992      6.29669         0.285077     -0.870832      1.670268
Ti       9.65201      5.88820     10.70806         0.034372     -0.208975     -1.333376
Ti       9.79109      9.68485      2.15734        -0.439845      0.599621      1.544670
Ti       9.62636      9.69970     14.70664         1.111604      0.112646      0.327656
Ti       9.83573      9.77346      6.49907         0.414965      0.252843     -0.835796
Ti       9.72524      9.70219     10.52139         0.397348     -0.040366     -0.263909
O       1.89707      1.98074      0.45888         0.370626     -0.434533      0.564745
O       1.92809      1.85787     12.89995         0.159491     -0.000274      0.038446
O       2.01573     13.62033      0.40363        -0.177518      0.171973      0.509524
O       1.83276     13.77873     12.92298         0.191749     -0.408153     -0.135773
O      13.87375      2.03327      0.50441        -0.690178     -0.608030     -0.231032
O      13.72675      1.84980     12.89542        -0.266741      0.336987      1.467537
O      13.63345     13.59884      0.35520        -0.152874      0.513314      0.696968
O      13.76764     13.64341     12.87893        -0.193773      0.048597     -0.145090
O       2.00424      1.86950      4.56123        -0.198439      0.077738      0.300558
O       1.99285     13.56771      4.50510        -0.311564      0.132014      0.436167
O      13.64004      1.86454      4.65536        -0.024560      0.420418     -0.262477
O      13.58380     13.60998      4.60991         0.324354      0.073819      0.108613
O       1.84728      1.95535      8.73901         0.187271      0.311555      0.039652
O       2.08506     13.39922      8.73273        -0.202401      0.771647     -0.317344
O      13.57333      2.01239      8.80277         0.450381     -0.146966     -0.774780
O      13.37953     13.63911      8.84543         0.872025      0.300545      0.332481
O       1.79195      5.70657      0.38632         0.280253      0.633107      0.968217
O       1.76795      6.07647     12.96631         0.507161     -0.639249      0.033792
O      13.80542      5.86997      0.48979        -0.426748     -0.044501     -0.359155
O      13.57460      5.80325     12.93095        -0.287048      0.126676      0.789825
O       2.05067      5.84341      4.65113        -0.766253      0.010283     -0.004698
O      13.55867      5.89861      4.65765         0.079584     -0.221711     -0.560531
O       1.83027      5.77764      8.74176         0.211860     -0.328603     -0.226253
O      13.46614      6.07941      8.90188         0.701520     -0.851629     -0.173946
O       2.02996      9.80615      0.41543        -0.548252     -0.223379      0.580795
O       2.05614      9.80477     12.85969        -0.318064     -0.391752      0.769595
O      13.83537      9.67828      0.37632        -0.437344      0.113536     -0.255074
O      13.64773      9.76528     12.91348        -0.239199      0.284181      1.201829
O       1.93556      9.57898      4.75701         0.157518      0.276547     -0.948600
O      13.61185      9.72587      4.64796         0.121745      0.355010     -0.511929
O       1.76731      9.84246      8.74376         0.696113      0.175475      0.260317
O      13.50580      9.69199      8.84786         0.443165      0.154001     -0.135027
O       5.88488      1.87302      0.45615        -0.086832      0.184586      0.144917
O       5.78280      1.75172     12.92662         0.165154      0.530436     -0.470443
O       5.84894     13.45726      0.47700         0.127908      0.599428      0.000429
O       5.92090     13.63787     12.95896        -0.039426     -0.058610      0.003180
O       5.87752      1.84248      4.58206         0.014074      0.189753     -0.019688
O       6.07290     13.64634      4.64856        -0.384205     -0.272100     -0.580020
O       5.87994      1.94900      8.69499        -0.148780     -0.127724      0.632233
O       5.73922     13.57204      8.76967        -0.159849     -0.014198     -2.014615
O       5.89980      5.63367      0.54428         0.056445      0.415341     -0.788092
O       5.58024      5.85432     12.92379         0.848768     -0.087217      0.477413
O       5.77658      5.85488      4.46180        -0.162040     -0.535352      1.330966
O       5.81737      5.76874      8.78476        -0.003455     -0.370606      1.220000
O       5.84356      9.76954      0.46525         0.401053      0.068440      0.001115
O       5.80888      9.68904     12.90225         0.000203     -0.075311      0.981215
O       5.90142      9.56323      4.67253         0.074392      0.806700     -0.114953
O       5.93326      9.61757      8.84068        -0.240913      0.310521     -0.569443
O       9.75673      1.84538      0.44116         0.301034     -0.029078      0.313302
O       9.78329      2.03522     12.99844         0.055412     -0.390882      0.690700
O       9.91650     13.69367      0.54937        -0.354225      0.313160     -0.619131
O       9.58854     13.46604     12.84921         0.196766      0.759997      0.662665
O       9.91736      2.06469      4.63804        -0.458335     -0.024480     -1.110608
O       9.81290     13.61274      4.61814        -0.165017     -0.198216      0.240813
O       9.74106      1.87670      8.77904        -0.525764      0.119707      0.525482
O       9.77292     13.79183      8.73673        -0.120917     -0.462669      1.146981
O       9.60124      6.11694      0.51459         0.313477     -0.873380     -0.055912
O       9.73863      5.61996     13.00466         0.148730      0.574921     -0.062278
O       9.92467      5.86480      4.58004        -0.694525     -0.491748     -0.565791
O       9.48855      5.88611      8.93132         0.430630      0.035260      0.167850
O       9.67820      9.66972      0.44084         0.577834     -0.103055     -1.165417
O       9.83247      9.76877     12.96949        -0.458438      0.351914     -0.281878
O       9.82036      9.86790      4.67658         0.046622     -0.330006      0.681365
O       9.75193      9.45256      8.75663        -0.234190      0.757528      0.143549
O       3.92936      1.77341      2.52260        -0.080804      0.500429      0.058645
O       3.89063      1.89729     14.98460        -0.286627      0.228543      0.172840
O       3.94648     13.50704      2.51071         0.003370      0.417930      0.318291
O       3.94237     13.60208     15.02744        -0.547366      0.469044     -0.283854
O       0.08421      1.72717      2.62215        -0.675272      0.736701      0.064351
O       0.03389      1.95705     15.06101        -0.296832     -0.504328     -0.393574
O       0.00413     13.64632      2.43195         0.095586      0.103556      0.422373
O      15.58249     13.57691     15.01248         0.602210      0.382721     -0.089603
O       3.87889      1.94855      6.62104         0.061583      0.005257      0.200184
O       3.88319     13.66683      6.52852         0.623219     -0.213264      0.498526
O      15.49883      1.99678      6.65993         1.167031     -0.340483      0.387755
O       0.01023     13.65113      6.71760         0.084900      0.207665     -0.010941
O       3.86006      1.93617     10.89574         0.367755      0.098490     -0.159659
O       3.87573     13.63410     10.94347         0.103813     -0.149837     -0.498829
O       0.02082      1.94396     10.82660        -0.054747     -0.056660      0.072939
O      15.50913     13.63943     10.75483         1.317884     -0.239034      0.001854
O       3.92717      5.80143      2.49682        -1.536069     -0.236733     -0.062653
O       3.79413      5.89739     15.09632         1.270267     -0.800145     -0.253623
O      15.59288      5.96230      2.65401         0.630499     -0.889161     -0.128980
O      15.48038      5.86791     14.92999         0.400243      0.552862      0.347055
O       3.84666      5.72007      6.74000        -0.142703      0.312827     -0.037851
O      15.47636      5.74333      6.70474         0.415518      0.329535      0.149291
O       3.90942      5.85918     10.98312        -0.883139     -0.329886     -0.978605
O      15.48681      5.86362     10.90754         0.622137      0.114932     -0.139837
O       3.99309      9.83818      2.53134        -0.684621     -0.280549      0.215024
O       3.91565      9.70090     15.13756         0.392316      0.451579     -0.830398
O       0.06491      9.72810      2.57684        -0.999121     -0.204599     -0.191239
O       0.07041      9.73304     14.94950        -0.652994      0.050191     -0.037461
O       3.84747      9.55080      6.81903         0.171158      0.757939     -0.012566
O      15.50574      9.83536      6.70010         0.815483     -0.041050      0.415205
O       3.88715      9.83383     10.77956        -0.078237     -0.731663     -0.161849
O      15.57811      9.89548     10.85931        -0.187789     -0.342578      0.196668
O       7.84292      1.90870      2.52339         0.213042     -0.079972      0.273541
O       7.81047      1.98284     15.06478         0.487686     -0.271784     -0.287134
O       7.81461     13.71509      2.57488         1.097959     -0.246408     -0.142124
O       7.78076     13.72228     15.20091         0.159001     -0.308867     -0.810039
O       7.84213      2.07691      6.63822        -0.488976     -0.662884     -0.031145
O       7.85637     13.49162      6.83385        -1.323265      0.187095     -0.529329
O       7.75792      1.85997     10.96892        -0.430154      0.459108     -0.564956
O       7.76678     13.58778     10.78738        -0.341044      0.112061     -0.010182
O       7.72713      5.75586      2.65173         1.886480      0.301107      0.025319
O       7.79304      5.72681     15.03864        -0.463860      0.632193     -0.350121
O       7.68415      5.70843      6.69850         1.502982      0.350039     -0.720335
O       7.73220      5.74420     11.05010         0.064841      0.447573      0.126982
O       7.89482      9.62963      2.53662        -0.377261      0.472998      0.208202
O       7.80415      9.63696     15.03767        -0.713214      0.089769     -0.323244
O       7.78359      9.73497      6.76397         0.404164      0.250598     -0.137735
O       7.89188      9.77021     10.93221        -1.040408     -0.022821      0.033858
O      11.82376      2.08472      2.55778        -0.781049     -0.808512     -0.580117
O      11.74243      1.95845     15.05555         0.126553     -0.315623      0.199316
O      11.80651     13.64595      2.53792        -1.124929      0.021262      0.182507
O      11.71691     13.63985     14.85080        -0.788524      0.323053      0.348246
O      11.68589      1.99736      6.82153         0.263734     -0.452234     -0.278158
O      11.69227     13.75993      6.78070        -0.578635     -0.499588     -0.479790
O      11.64632      1.90694     10.85216         0.356478      0.154770      0.236549
O      11.62190     13.76719     10.92417        -0.133190     -0.206539      0.402146
O      11.72821      5.77514      2.43907        -0.158459      0.046953     -0.177015
O      11.66541      5.75679     15.23986         0.633951      0.004970     -0.097217
O      11.65333      5.85886      6.83268        -0.261968     -0.077984     -0.266797
O      11.53402      5.77733     10.81953         1.366816      0.150506      0.543999
O      11.82391      9.70758      2.54189        -0.619563      0.217368     -0.547707
O      11.68835      9.90763     15.02934         0.067087     -0.653753      0.039187
O      11.70410      9.76988      6.76130        -0.482775     -0.252570     -0.143794
O      11.65631      9.75280     10.94483        -0.105588     -0.141502     -0.020596
O       1.88300      3.83909      2.48536         0.198254      0.205326      0.634625
O       1.87780      3.94608     14.89303         0.363500     -0.570301     -0.005608
O       1.96844     15.50539      2.59822         0.281642      0.037045     -0.254757
O       1.89797     15.59023     15.01688         0.366557     -0.064857      0.018431
O      13.76460      3.89918      2.58244         0.429114     -0.186115      0.128863
O      13.73019      3.85328     15.03936        -0.764369      0.385346     -0.094018
O      13.67699     15.57315      2.51642        -0.092062      0.323309     -0.030619
O      13.68799     15.57998     15.06221        -0.101364      0.463510     -0.135606
O       1.82336      3.87254      6.65817         0.178244     -0.382751      0.136678
O       1.96102      0.01257      6.85261        -0.556568     -0.378310     -0.876378
O      13.57067      3.92554      6.74249        -0.083923     -0.458105      0.090606
O      13.57904     15.57797      6.75145         0.680682      0.609692      0.187782
O       1.95916      3.96323     10.92196        -0.184652     -0.682474     -0.029088
O       2.01554     15.53497     10.76393        -0.532649      0.497870     -0.154584
O      13.70364      3.89161     10.96369        -0.523333      0.105323     -0.404272
O      13.64601      0.03771     10.88809        -0.022180     -0.156086     -0.208083
O       1.94234      7.75144      2.43100         0.301327      0.235891      0.059543
O       2.04709      7.84074     15.07844        -0.836965      0.073624     -0.111185
O      13.68535      7.80568      2.59957        -0.202049      0.152697     -0.517750
O      13.46456      7.83180     15.04279         0.725326     -0.466950     -0.291879
O       1.76130      7.74922      6.90134         0.240908     -0.382523     -0.313811
O      13.65280      7.83328      6.77028        -0.192239     -0.573564     -0.073699
O       1.84914      7.78937     10.67037         0.446689      0.269567      0.496312
O      13.57708      7.84450     11.02925         0.011065     -0.473206     -0.490422
O       1.93604     11.63355      2.48446        -0.006643      0.369315      0.524344
O       2.00482     11.75592     15.07510        -0.225266     -0.717025     -0.764430
O      13.75346     11.72493      2.48876        -0.187864     -0.957884      0.079367
O      13.65464     11.72966     15.03306         0.188902     -0.625203     -0.150696
O       1.92471     11.67101      6.62445         0.420201      0.403545      0.177812
O      13.58722     11.74292      6.77752        -0.091012      0.078239     -0.149198
O       1.95811     11.67912     11.02206        -0.177902      0.948122     -0.781345
O      13.43528     11.70700     10.88370         0.500823      0.775015      0.096358
O       5.80178      3.80791      2.59957         0.248007     -0.705615      0.126758
O       5.79751      3.80691     15.03824        -0.094935      1.389752     -0.313020
O       5.88538     15.53219      2.54836        -0.001298      0.420392     -0.003766
O       5.79321      0.03146     15.03759         0.390410     -0.836394      0.309847
O       5.87181      3.85361      6.66689        -0.665108     -0.365207     -0.234020
O       5.90163     15.54236      6.66622        -0.080640      0.049072      0.078268
O       5.87123      3.83322     10.92977        -0.413556     -0.565805     -0.050710
O       5.78500     15.60172     10.79713         0.171990     -0.854803     -0.008541
O       5.87711      7.76070      2.53164         0.128907      0.479198     -0.340843
O       5.80716      7.73754     15.09918         0.208386     -0.216592     -0.618755
O       5.79345      7.71296      6.68428         0.172770     -0.175712      0.179665
O       5.93088      7.75387     10.88451        -0.428249      0.149961      0.125352
O       5.98839     11.71386      2.70538        -0.206902     -0.608354     -0.485157
O       5.86018     11.66701     15.03670         0.324216     -0.499689     -0.378529
O       5.72334     11.61931      6.75085         0.255657      0.557131     -0.303526
O       5.80566     11.64820     10.90706         0.256901      0.620811     -0.306391
O       9.75386      3.91483      2.45367        -0.161123     -0.507625      0.121933
O       9.83054      3.88481     15.07070        -0.113636     -0.432369      0.857570
O       9.88841      0.01785      2.67798        -0.729876      0.259220     -0.712043
O       9.72850     15.55349     14.91227         0.327498      1.226885      0.425832
O       9.89636      3.87061      6.83069        -0.917024      1.006832     -0.412486
O       9.61798     15.57353      6.57789         0.018063      0.517103      0.141748
O       9.70918      3.81637     10.91519        -0.422528      0.642046     -0.097910
O       9.65966      0.01976     10.95217         0.045934     -0.497275      0.032828
O       9.83033      7.79194      2.74756        -0.096787      0.000177     -0.699936
O       9.99794      7.76236     14.90417        -0.777973      0.301187      0.125605
O       9.78295      7.73697      6.63468        -0.535866      0.207267     -0.138681
O       9.77332      7.84123     11.06857        -0.752740     -0.998503     -0.408840
O       9.83894     11.68073      2.45674        -0.237429     -0.063560      0.165848
O       9.69546     11.77251     15.04075        -0.198179     -0.589677      0.240689
O       9.81366     11.68002      6.96403        -0.324432     -0.075039     -0.618819
O       9.85949     11.68893     10.68402        -0.472233     -0.018361      0.181680
