  # total energy = -7881.42298958 
CRSYTAL
PRIMVEC
    15.6080000000000005    0.0000000000000000    0.0000000000000000
     0.0000000000000000   15.6080000000000005    0.0000000000000000
     0.0000000000000000    0.0000000000000000   16.6239999999999988
PRESSURE
-0.397137 -0.34898 0.531859 -0.186778 -0.194645 -0.030129
PRIMCOORD
320 1
Pb       4.05028      3.99631      4.25011        -1.138833     -0.280433     -0.278267
Pb       3.95866      3.99110     16.50635        -0.198256     -0.456201      1.046454
Pb       3.93330      0.11774      4.04180        -0.094922     -0.706623      0.098151
Pb       3.82967      0.01995     16.43864         0.282994     -0.389366      0.521633
Pb       0.06115      3.85359      4.16137         0.240349      0.021198      0.044485
Pb      15.58917      3.75850     16.60596        -0.621672      0.675687      0.168785
Pb      15.47281      0.02049      4.08483         0.208288     -0.443247      0.423157
Pb      15.54789      0.04520     16.58752        -0.332286     -0.933796     -0.271107
Pb       3.80902      3.81244      8.24368         0.340190     -0.038072     -0.018796
Pb       3.96582     15.57929      8.12484        -0.552055      0.128572      0.639465
Pb      15.52869      3.89570      8.32843         0.095321     -0.152933     -0.357971
Pb       0.00763     15.55885      8.23785         0.125146     -0.045013      0.099351
Pb       3.71904      3.91551     12.63721         0.235138     -0.081928     -0.695874
Pb       3.87268     15.50003     12.55206         0.086335      0.107995     -0.248718
Pb      15.60433      3.97187     12.62076        -0.367011     -0.003642     -0.770489
Pb       0.17506     15.55814     12.46380        -0.568807      0.238491     -0.074369
Pb       3.79622      7.89823      4.01470         0.064476     -0.856141      0.208995
Pb       3.95727      7.67360     16.57654        -0.580084      0.702339      0.558945
Pb       0.08821      7.85956      4.14215        -0.251594     -0.422181     -0.157933
Pb      15.50347      7.73469     16.58968         0.363397      0.563115      0.467413
Pb       3.84692      7.73431      8.33737        -0.180043      0.554797     -0.380823
Pb      15.34502      7.69552      8.52799         0.487013      0.505431     -0.467080
Pb       3.97236      7.82450     12.37944        -0.166206     -0.027322      0.201707
Pb      15.41044      7.74374     12.51928         0.613776      0.400967     -0.048868
Pb       3.82132     11.68512      4.05147        -0.014881      0.523038     -0.157436
Pb       3.94013     11.64194     16.56778        -0.573486      0.086068      0.059750
Pb      15.56254     11.70004      4.11787         0.087842      0.319133     -0.217590
Pb      15.52566     11.76788     16.58601         0.090236     -0.072846      0.400847
Pb       3.85091     11.88739      8.29070        -0.043045     -0.356865     -0.240253
Pb       0.07552     11.63858      8.11668        -0.450406      0.234682      0.339044
Pb       3.95794     11.60265     12.23769        -0.372849      0.134528      0.724467
Pb       0.09813     11.61192     12.42155         0.230110     -0.170972     -0.145093
Pb       7.79031      3.66579      4.13732         0.138137      0.591357      0.164426
Pb       7.89382      3.95277     16.54415        -0.249978     -0.204685      0.633567
Pb       7.82014     15.48276      4.15715        -0.072217     -0.331793     -0.645461
Pb       7.83542      0.13426     16.55257        -0.064788     -0.808163      0.332808
Pb       7.65693      3.79132      8.53727        -0.234478      0.152913     -0.609466
Pb       7.80655      0.01051      8.22903        -0.262296      0.150585      0.611606
Pb       7.78932      3.59283     12.50670        -0.187787      0.773105      0.009044
Pb       7.77380     15.51172     12.48009         0.196520     -0.520629     -0.311586
Pb       7.95492      7.82748      4.15154        -0.748350      0.217717      0.457817
Pb       7.65571      7.79123     16.56831         0.682964      0.327484      0.250734
Pb       7.85191      7.84908      8.16057         0.246637     -0.148025      0.118848
Pb       7.86426      7.61742     12.38310         0.224135      0.691662      0.179921
Pb       7.87748     11.63639      4.10717        -0.177330      0.263470      0.031833
Pb       7.77187     11.83279     16.49172        -0.002880     -0.491072      0.341580
Pb       7.75036     11.70931      8.18509        -0.065864     -0.353924     -0.022204
Pb       7.83654     11.56466     12.36465         0.072766      0.824688      0.236596
Pb      11.76981      3.73733      4.28644        -0.136539      0.227150     -0.568586
Pb      11.70736      4.10830      0.29950         0.342246     -0.205130     -0.847217
Pb      11.40231     15.51019      4.13812         0.388871     -0.224750     -0.011707
Pb      11.67622     15.58844     16.49784         0.187938     -0.113829      0.079943
Pb      11.66001      4.14648      8.43223        -0.009378     -0.414684     -0.274336
Pb      11.66018      0.17227      8.39346         0.033695     -0.414391     -0.200986
Pb      11.83430      3.74874     12.49808         0.037417      0.390022     -0.229081
Pb      11.53488     15.51794     12.35558         1.019593     -0.067533      0.754371
Pb      11.61491      7.67603      4.08369         0.334715      0.360705      0.296710
Pb      11.69886      7.86252      0.02683        -0.218534     -0.036014      0.198554
Pb      11.65637      7.81157      8.32812        -0.516677     -0.073901     -0.074699
Pb      11.46634      8.01155     12.50376         0.430219     -0.505070     -0.286997
Pb      11.85451     11.35016      4.19581        -0.552103      0.843250      0.240837
Pb      11.75802     11.64281     16.59346         0.050052      0.098248      0.192837
Pb      11.78503     11.90431      8.42528         0.136673     -0.497060     -0.566740
Pb      11.80789     11.77503     12.42209        -0.704478     -0.191504      0.566673
Ti       1.88193      1.85881      2.22042         0.798923      1.381472      1.088717
Ti       1.91190      1.99653     14.77152         0.415857     -1.038230     -1.533795
Ti       1.84545     13.68706      2.19915        -0.117755     -1.583068     -0.389124
Ti       1.94861     13.54804     14.62810        -0.416296      0.265388      1.007006
Ti      13.63673      1.86000      2.23769        -0.767926      0.481712     -0.469116
Ti      13.62381      1.99337     14.66330        -0.754404     -0.650266     -0.886518
Ti      13.48937     13.60480      2.27595         0.932096     -0.651023     -0.817952
Ti      13.61688     13.68420     14.54281        -0.453043     -0.207681      1.535677
Ti       1.86495      1.97815      6.41554         0.077685      0.143048     -0.164103
Ti       1.89429     13.71956      6.23448        -0.334614     -0.350174      0.034094
Ti      13.57995      1.90136      6.45487         0.490473      0.489258     -0.328595
Ti      13.56617     13.65948      6.30041         0.418371     -1.053562      1.075334
Ti       1.90984      2.02006     10.56992         0.519779     -0.621939     -1.014562
Ti       1.95016     13.70294     10.51772         0.013041     -1.253227     -1.102376
Ti      13.70801      1.87017     10.55046        -0.027654      0.184497      0.801385
Ti      13.71730     13.60778     10.50995         0.101314      0.988080      0.328357
Ti       1.91231      5.80817      2.15990         0.076377      0.169193      0.965996
Ti       1.87926      5.91659     14.73672        -0.651206      0.411877     -0.498055
Ti      13.66567      5.75107      2.22336         0.369641      1.175753      0.004655
Ti      13.57290      5.90350     14.71410        -0.035880     -0.427886      0.400351
Ti       1.85865      5.96377      6.29913        -0.453342     -0.178509     -0.121610
Ti      13.58162      5.80501      6.31559         0.295332     -0.176288      0.898554
Ti       1.92518      5.91406     10.59760        -0.159262     -0.149500      0.701296
Ti      13.60016      5.84105     10.60133        -0.402795     -0.126937      0.014040
Ti       1.90487      9.76454      2.12792        -0.243457      0.302038      0.480845
Ti       1.93848      9.78254     14.68808        -0.425260     -0.646891     -0.137492
Ti      13.73210      9.62470      2.23950        -0.350164      0.487125     -0.045608
Ti      13.63521      9.73307     14.68810        -0.119728      0.698496     -0.057603
Ti       1.94833      9.77668      6.23548        -0.517299     -0.321947      1.576009
Ti      13.61264      9.61364      6.45816         0.786784      1.493859     -0.322424
Ti       2.01377      9.65947     10.46394        -1.299489      1.113289      0.979448
Ti      13.68055      9.79314     10.63588        -0.431696     -0.685202     -0.587799
Ti       5.82362      2.00711      2.16397        -0.274213     -1.055585     -0.384466
Ti       5.87644      1.98584     14.71821        -0.320311     -1.225306     -0.009809
Ti       5.79242     13.69282      2.11291         0.106823      0.040059      1.181463
Ti       5.83763     13.64509     14.62880         0.113074     -0.047655     -0.759552
Ti       5.92307      1.88911      6.27174        -0.867455      0.943375      1.159431
Ti       5.82387     13.65799      6.24116        -0.380261     -1.016128      1.823526
Ti       5.71383      1.83148     10.66277         0.568455      0.774109     -0.948967
Ti       5.77111     13.62838     10.48024         1.082037     -0.155066      0.115914
Ti       5.88096      5.83800      2.30348        -1.482077      0.874074     -0.513799
Ti       5.77750      5.91525     14.65183         1.030515     -0.312044     -0.377293
Ti       5.71623      5.88652      6.36269         1.693320     -0.710492     -0.081692
Ti       5.85149      5.67360     10.66297         0.371347      0.212405     -0.737829
Ti       5.79850      9.78537      2.20688         0.673841     -0.151508      0.288899
Ti       5.83709      9.76751     14.64355        -0.005607      0.550603     -0.132416
Ti       5.76047      9.71968      6.29751         0.626223      0.857866      1.276026
Ti       5.95963      9.64130     10.45902         0.672916      0.039586      0.522597
Ti       9.76060      1.95552      2.14119         0.022118     -0.429403      0.611556
Ti       9.81417      1.97690     14.74772         0.315734     -1.029450     -0.190657
Ti       9.68046     13.61021      2.08618        -0.426504     -0.229680      1.027766
Ti       9.74893     13.58729     14.70166         0.286350      0.679347     -0.550836
Ti       9.76437      1.99141      6.41398        -0.234273     -0.276198      0.132747
Ti       9.68293     13.65374      6.45413         0.874831     -0.592279     -0.810228
Ti       9.78004      1.91961     10.58051        -0.449109     -0.098932     -1.154229
Ti       9.77493     13.61090     10.44525        -0.799061     -0.669778      0.177086
Ti       9.71718      5.80125      2.24583         0.235356      0.444645      0.218587
Ti       9.71585      5.85554     14.72488         0.707526      0.652920     -0.149791
Ti       9.62429      5.75657      6.28931         0.081785      0.938667     -0.004809
Ti       9.75128      5.68011     10.67089        -0.061884      1.462648     -0.725276
Ti       9.77015      9.78810      2.13421         0.037290     -0.387942     -0.023036
Ti       9.72137      9.73723     14.73247         0.197481     -0.026252      1.970219
Ti       9.81469      9.79863      6.30831        -0.983093     -0.308638      1.111545
Ti       9.81285      9.81150     10.40437        -0.663559     -0.639052     -0.301221
O       1.88587      1.89448      0.44773        -0.175315     -0.054793     -0.723059
O       1.97916      1.93867     12.92280        -0.137199     -0.053199      0.949283
O       1.86045     13.49681      0.40436        -0.063131      0.784173     -0.103578
O       2.06415     13.69798     12.88188        -0.742170     -0.305970     -0.837438
O      13.64172      1.97548      0.45143         0.148698     -0.132505     -0.259207
O      13.54643      1.97593     12.84034         0.675437      0.297607      1.420702
O      13.63464     13.41579      0.48384        -0.558931      0.708219      0.328380
O      13.42794     13.62705     12.82846         0.607048      0.176410     -0.991151
O       1.72021      2.01868      4.63772         0.158724     -0.237364     -0.054130
O       1.86718     13.64362      4.46043         0.002300     -0.003493      0.583769
O      13.59942      2.11180      4.64708        -0.031787     -0.450344     -0.169248
O      13.62082     13.62360      4.55436        -0.205056      0.266878     -0.704405
O       1.81501      1.97545      8.75112         0.402290     -0.075942      0.657693
O       1.98682     13.56608      8.71678        -0.140615      0.381373      0.063721
O      13.57135      1.84903      8.77879         0.466577      0.128845     -0.405273
O      13.68283     13.54387      8.74196         0.026050      0.376826     -0.057947
O       2.00175      5.81578      0.37954         0.030736     -0.299813     -0.464406
O       1.77253      5.68976     12.90796         0.574200      0.430075      0.546981
O      13.63719      5.85265      0.40139        -0.202063     -0.178800      0.247798
O      13.69500      5.85564     12.91875         0.058736     -0.340671      0.201424
O       1.74038      6.03239      4.51228         0.365220     -0.895225      0.620049
O      13.60974      5.88550      4.55917         0.020096     -0.293888      0.156844
O       1.99968      6.18951      8.86620        -0.045187     -0.784113     -0.568441
O      13.49699      5.83232      8.76676         0.351502      0.004965      0.574700
O       1.86607      9.77930      0.39909         0.522791     -0.067090     -1.027631
O       1.80069      9.79789     12.91634         0.533122      0.010872      0.029566
O      13.67345      9.66301      0.46940        -0.342895      0.132461     -0.576476
O      13.58186      9.81879     12.90679         0.108824     -0.478463     -0.607289
O       1.78659      9.76847      4.47295         0.507164     -0.153398     -0.001387
O      13.58361      9.66123      4.65046         0.200958     -0.177857     -0.045440
O       2.01078      9.68546      8.73641        -0.284192     -0.398245     -0.315708
O      13.54352      9.64143      8.86222         0.020610      0.300888     -0.538696
O       5.68269      1.92130      0.37614         0.535328      0.215960      0.103899
O       5.86024      1.82804     12.91716         0.210444      0.036266      0.077518
O       5.86265     13.69318      0.36443        -0.186993     -0.134733     -0.604947
O       5.80505     13.62528     12.80433         0.070654      0.055314      0.739675
O       5.88688      1.94071      4.51258         0.084598     -0.094830     -0.794355
O       5.84122     13.58636      4.54011        -0.182372      0.503785     -1.370745
O       6.07682      1.89394      8.86891        -0.952121      0.202136      0.198125
O       5.74139     13.63555      8.69399         0.142408     -0.066327      0.503343
O       5.63686      5.92311      0.46279         0.221340     -0.391475      0.024247
O       5.91682      5.96690     12.90321        -0.362356     -0.422262      0.574410
O       5.78527      5.76509      4.58234        -0.161351      0.040994     -0.026522
O       5.85565      5.47067      8.87105        -0.068635      0.806830     -0.488382
O       5.82863      9.68461      0.42015        -0.244722      0.075713      0.367258
O       5.85354      9.74025     12.87718        -0.075298     -0.020979     -0.209411
O       5.74590      9.82151      4.56784        -0.118571     -0.184477     -0.372367
O       6.06570      9.59572      8.71479        -0.437425      0.413407      0.260053
O       9.75786      1.92532      0.37907         0.256215      0.220317      0.191819
O       9.66523      1.76580     12.96601         0.291136      0.589985     -0.592035
O       9.49066     13.60013      0.34820         0.615452      0.207854     -0.195511
O       9.75842     13.56783     12.90922         0.027534      0.343114     -0.351682
O       9.74083      1.90929      4.56405        -0.039489      0.136471      0.600556
O       9.74735     13.69983      4.65296        -0.302844      0.599497     -0.130600
O       9.67007      1.91263      8.73854         0.289377     -0.010874      1.158674
O       9.79844     13.62152      8.64905        -0.279419     -0.087517      0.124313
O       9.76009      5.79754      0.43031         0.009634     -0.270942      0.732743
O       9.75643      5.94689     12.92900        -0.076610     -0.430498      0.793236
O       9.68290      5.86127      4.48711        -0.036650     -0.383829      0.122709
O       9.72024      5.65875      8.86135         0.221198      0.240669      0.231003
O       9.84623      9.69174      0.34610        -0.693703      0.101258      1.064849
O       9.82175      9.73694     13.03228        -0.070866      0.027473     -2.087764
O       9.81945      9.83284      4.53832        -0.268528     -0.419332     -0.635284
O       9.68153      9.79072      8.62156         0.269345     -0.119510      0.048426
O       3.90099      1.85853      2.55316        -1.052870     -0.046623     -0.166822
O       3.89055      1.92205     15.06660        -0.873290     -0.282280     -0.576806
O       3.78372     13.73183      2.45688         1.271426     -0.007949      0.043144
O       3.83708     13.63387     14.76605         0.536666     -0.033997      1.180754
O      15.53471      1.94031      2.53880         0.679259      0.132626     -0.086462
O      15.51359      1.79595     15.02936         1.114555      1.351215     -0.121609
O      15.48636     13.53520      2.45232         0.453047      0.603113      0.504548
O      15.47086     13.44430     14.87416         0.567978      0.432072     -0.204328
O       3.81079      1.90285      6.63334         0.496919     -0.027383      0.069393
O       3.82801     13.63634      6.65120         0.222300      0.245144     -0.340289
O      15.49040      1.90561      6.83288         0.065105      0.116230     -0.237683
O       0.03266     13.64140      6.66827        -0.691476      0.442230     -0.102264
O       3.87408      1.81515     10.87191        -0.100570      0.469407     -0.002990
O       3.89869     13.51210     10.76076         0.131458      0.250844      0.289244
O       0.08221      1.87998     10.90709        -0.644377     -0.012950      0.133979
O       0.04836     13.67547     10.88693        -0.762189      0.054742      0.007096
O       3.71942      5.84805      2.63010         1.219648     -0.120098      0.043130
O       3.86588      5.79891     14.95857         0.391564      0.456156     -0.401283
O      15.54782      5.91879      2.45202         0.413681     -0.733823      0.025955
O       0.03530      5.89537     15.11304        -0.694171     -0.837834     -0.433427
O       3.86623      5.74027      6.67185        -0.134177      0.325075      0.119712
O       0.00766      5.86389      6.67120        -0.689824      0.208118      0.369823
O       3.96657      5.84242     10.95486        -1.181314      0.756376      0.113073
O      15.56999      5.91337     10.85505         0.494475     -0.545530     -0.141388
O       3.85626      9.72325      2.60464         0.528877      0.624561     -0.713876
O       3.87598      9.78376     14.93178         0.187817     -0.208662      0.158885
O       0.01093      9.87049      2.39187        -0.728641     -0.509567      0.674684
O      15.52028      9.75537     14.96955         0.057959      0.092368      0.057897
O       3.83695      9.84378      6.76844         0.404762     -0.604531     -0.756705
O      15.54635      9.61514      6.78726         0.363126     -0.088565     -0.353869
O       3.91023      9.59686     10.72721         0.795858     -0.257688      0.184936
O      15.53746      9.72142     10.86308         0.516759      0.134117     -0.086339
O       7.77036      2.15173      2.31137         0.274339     -0.326238      0.476404
O       7.86704      1.98297     15.09842        -1.494021      0.234654     -0.485733
O       7.75097     13.63482      2.60435         0.296606     -0.232559     -0.329267
O       7.79095     13.65269     14.88445        -0.989369     -0.300666      0.134986
O       7.75838      1.85439      6.62404         1.230582     -0.120135     -0.078833
O       7.69688     13.61600      6.67927         1.145174      0.602473     -0.142205
O       7.82690      1.97688     10.87068         0.359284     -0.270069      0.339837
O       7.82438     13.57095     10.82687        -0.433221      0.241591     -0.254563
O       7.68327      5.81444      2.36333         1.267534     -0.361008      0.351859
O       7.73238      5.80975     15.15383        -0.283237     -0.058330     -0.749062
O       7.79798      5.86768      6.53776        -0.823931     -0.317767      0.508256
O       7.83345      5.53688     10.99485         0.145373      0.558939     -0.111744
O       7.73478      9.71973      2.65296         0.242070      0.231346     -0.754432
O       7.81509      9.79774     14.98059        -0.899726     -0.020829      0.131883
O       7.78838      9.61763      6.55804        -0.507669      0.904780     -0.022547
O       7.94727      9.83849     10.91857        -1.574018     -0.757787     -0.546654
O      11.68415      1.89719      2.52373        -0.625520      0.172421      0.081566
O      11.69613      1.80430     14.93811         0.271380      0.570528      0.142088
O      11.55804     13.73995      2.46671         0.601731      0.066595     -0.115054
O      11.62880     13.84929     14.96061         0.538357     -0.812850      0.295107
O      11.67096      2.03287      6.86154        -0.239133     -0.045549     -0.749978
O      11.74462     13.48260      6.72008        -0.383167      0.672490     -0.234842
O      11.79093      1.93222     10.87877        -1.703994      0.028175     -0.171963
O      11.69918     13.55346     10.71674         0.056138      0.439981      0.008915
O      11.70825      5.90054      2.59748        -0.618872     -0.299360     -0.796993
O      11.69371      5.91240     15.09476        -0.335740     -0.340790     -0.404542
O      11.61798      5.79256      6.66511         0.581470     -0.006221     -0.096438
O      11.70228      5.78932     10.95495         0.185430     -0.222862     -0.234587
O      11.66589      9.61030      2.40869         0.067167      0.144773      0.538914
O      11.68132      9.50366     15.04864         0.063319      0.548918     -0.179450
O      11.65717      9.76118      6.61990         0.810263     -0.176886      0.437641
O      11.64455      9.86782     10.91734         0.692926     -0.773009     -0.190526
O       1.94156      3.83055      2.63586        -0.488979     -0.015473     -0.685168
O       1.96767      3.86463     14.88793        -0.493358     -0.301467      0.690240
O       1.83969     15.55850      2.65018        -0.151984      1.261266     -0.633398
O       1.76675     15.52387     14.97765         0.580759      0.221817      0.165162
O      13.55864      3.90165      2.38786         0.038647     -0.265105      0.573220
O      13.66571      3.93024     14.99246         0.125678     -0.591719     -0.000593
O      13.66639      0.00925      2.49905        -0.233434     -0.706512      0.105675
O      13.64508     15.59958     14.93953         0.296751     -0.226447      0.340387
O       1.87836      3.90949      6.77866        -0.157858      0.402534     -0.206350
O       1.81682      0.03398      6.61736         0.392456     -0.610305      0.143073
O      13.72908      3.91049      6.70531        -0.480533      0.461086      0.072352
O      13.47471     15.59826      6.59112         0.485057     -0.033003      0.278083
O       2.06381      3.89808     10.83721        -0.423714      0.371707     -0.024887
O       2.03580     15.52259     10.80630        -0.284866      1.011252      0.428600
O      13.77264      3.85912     10.82612        -0.318342      0.402077      0.321663
O      13.63416      0.01321     10.92576         0.320486     -1.023928     -0.408360
O       1.95407      7.81658      2.38220        -0.354336     -0.081557      0.399271
O       1.88166      7.79402     14.97486         0.506882     -0.233485     -0.077446
O      13.76742      7.79601      2.60797        -0.549250     -0.055323     -0.339077
O      13.65959      7.78028     14.97912         0.242476     -0.159885      0.056023
O       1.95599      7.83311      6.49856         0.596056     -0.347844      0.530646
O      13.57275      7.74124      6.91995        -0.104646     -0.329663     -0.877358
O       1.84820      7.80337     11.04403         0.650392     -0.137652     -0.296486
O      13.66885      7.78316     10.82547        -0.368183     -0.068829      0.284848
O       1.91452     11.67809      2.49575         0.457887      0.567826      0.282159
O       1.89517     11.63241     15.05667         0.214052      1.005787     -0.425094
O      13.58092     11.65977      2.65657        -0.286418     -0.201634     -0.362087
O      13.29999     11.66609     14.90679         0.763096      0.081130     -0.045465
O       1.82347     11.66253      6.52722         0.367835      0.331407      0.089377
O      13.77423     11.66861      6.65386        -0.496478     -0.301294      0.092772
O       1.89401     11.67814     10.80920         0.391142     -0.785962      0.175525
O      13.64349     11.74282     10.89080         0.318117     -0.390371     -0.211646
O       5.65344      3.87286      2.59743         0.590557      0.543675     -0.411756
O       5.70508      3.81603     14.85949         0.597969      1.408456      0.236239
O       5.91811      0.01987      2.52811        -0.164247      0.004264      0.030969
O       5.80149     15.55484     14.92115         0.113255      0.248686      0.196890
O       5.86095      3.74421      6.64759        -0.258930      0.968852      0.078291
O       5.86018     15.59030      6.71679        -0.301963     -0.205843     -0.537624
O       5.74142      3.85509     11.02135         0.264060     -1.275861      0.444119
O       5.77043     15.54925     10.76512         0.378432     -0.481983      0.541578
O       5.74652      7.76059      2.61439         0.144717      0.157976     -0.372676
O       5.83163      7.86003     14.93452        -0.120940     -1.246152      0.311722
O       5.83747      7.77660      6.73266        -0.706446     -0.705311     -0.410290
O       6.12501      7.68793     10.86256        -1.045547      0.803230     -0.515459
O       5.84224     11.76198      2.49175        -0.553832     -0.835406     -0.351861
O       5.79874     11.68274     15.07988         0.142616      0.475445     -0.489848
O       5.83301     11.72628      6.67383        -0.042477     -0.595823     -0.023219
O       5.78618     11.57829     10.80778         0.521210      0.162680     -0.474496
O       9.82371      3.90138      2.58508        -0.179688     -0.184688     -0.511783
O       9.81781      3.87739     15.07319        -0.278179      0.469326     -0.280545
O       9.57981     15.56320      2.46769         0.268703      1.016578      0.079119
O       9.69796     15.56516     15.06680        -0.298554      0.732640      0.120367
O       9.70270      3.85235      6.68028        -0.100623      0.039095     -0.398930
O       9.85314     15.59063      6.74855        -0.271329      0.490068     -0.273610
O       9.84444      3.83107     10.92746         0.090458     -1.181906      0.322242
O       9.77730     15.54049     10.79274        -0.173477      0.587226     -0.074502
O       9.64843      7.78415      2.61714         0.313633     -0.340663     -0.757258
O       9.61927      7.75905     15.09249         0.060761     -0.554550     -0.294468
O       9.66898      7.80673      6.58256         0.746474     -0.511298      0.158928
O       9.73974      7.81712     10.79970         0.091592     -0.382400      0.225789
O       9.82087     11.67218      2.48698        -0.671469      0.005617     -0.281683
O       9.83721     11.70941     15.07556        -0.161932     -0.473298     -0.232943
O       9.73328     11.76748      6.53004        -0.573138     -0.926393      0.689477
O       9.77106     11.67476     10.73537        -0.081424      0.841069      0.209474
