  # total energy = -7881.41483763 
CRSYTAL
PRIMVEC
    15.6080000000000005    0.0000000000000000    0.0000000000000000
     0.0000000000000000   15.6080000000000005    0.0000000000000000
     0.0000000000000000    0.0000000000000000   16.6239999999999988
PRESSURE
-0.417087 -0.326227 -0.772094 0.011819 -0.090754 0.024021
PRIMCOORD
320 1
Pb       4.04960      3.95917      4.24738        -0.598172      0.213342     -0.635946
Pb       3.94865      3.96361     16.54140        -0.450969     -0.033464     -0.020731
Pb       3.94099      0.10265      4.05956        -0.245753     -0.463407      0.239169
Pb       3.82989     15.60581     16.45238         0.034651     -0.092627      0.214865
Pb       0.01885      3.85952      4.13434        -0.201015     -0.002393      0.319482
Pb      15.57972      3.76902     16.60516         0.269303      0.193858     -0.142494
Pb      15.51074      0.00077      4.08013        -0.082215     -0.115542      0.117618
Pb      15.57666      0.04092     16.59739         0.015772     -0.117132     -0.236971
Pb       3.82333      3.82219      8.24847        -0.073452      0.481575      0.030232
Pb       3.97551      0.01123      8.18065        -0.032757     -0.000423      0.042540
Pb      15.52339      3.90652      8.28983         0.271039      0.495163      0.460312
Pb       0.02078     15.56909      8.24206        -0.181684     -0.258625      0.099151
Pb       3.70869      3.93996     12.64912         0.106616     -0.139956     -0.486778
Pb       3.84996     15.49255     12.55504        -0.011753     -0.197791     -0.471088
Pb      15.59178      3.94917     12.60250        -0.076942      0.207358     -0.787249
Pb       0.16295     15.56673     12.46963        -0.213729     -0.003269     -0.066985
Pb       3.76523      7.89028      4.00241         0.819718     -0.419214      0.369765
Pb       3.92610      7.66058     16.57349        -0.273362      0.334500      0.602511
Pb       0.06753      7.87077      4.10436         0.069811     -0.463576      0.224092
Pb      15.51077      7.73974     16.59459         0.353501      0.140866      0.139841
Pb       3.87034      7.75185      8.34202        -0.123180     -0.271026     -0.140514
Pb      15.35139      7.71776      8.53159         0.730542     -0.242445     -0.508697
Pb       3.95276      7.83318     12.41807        -0.101053      0.264764     -0.010792
Pb      15.40582      7.73392     12.51840         0.567523      0.166484     -0.680810
Pb       3.83905     11.69432      4.06499         0.331645     -0.008537      0.078016
Pb       3.92340     11.64702     16.55368         0.077925      0.410419      0.062097
Pb      15.55965     11.73273      4.11816         0.238014      0.120438     -0.049216
Pb      15.55038     11.78665     16.62154        -0.216208     -0.233356     -0.412482
Pb       3.84831     11.88935      8.30376        -0.010563     -0.688631      0.235126
Pb       0.02128     11.64124      8.11823        -0.064909      0.375985      0.347533
Pb       3.91984     11.64721     12.26451         0.266082      0.015230      0.751100
Pb       0.07351     11.58832     12.41739         0.107435      0.108919      0.306997
Pb       7.77163      3.67397      4.14608         0.415346      0.406024     -0.656969
Pb       7.83554      3.91484     16.54089        -0.063986      0.203157      0.412856
Pb       7.79920     15.48552      4.14991        -0.013785      0.003008      0.030300
Pb       7.82598      0.11410     16.56673        -0.385088     -0.764730      0.608163
Pb       7.68537      3.79743      8.53980         0.016289      0.336132     -0.522489
Pb       7.83112     15.59656      8.28727        -0.077510      0.061823     -0.262018
Pb       7.78172      3.63338     12.48269         0.401549      0.465639      1.099855
Pb       7.80874     15.55323     12.49588         0.040954     -0.312117     -0.282931
Pb       7.92546      7.81514      4.12250        -1.010650      0.361886     -0.285754
Pb       7.68246      7.80618     16.55082        -0.117023     -0.291334      0.432217
Pb       7.89946      7.86076      8.18317        -0.819486     -0.285938      0.121769
Pb       7.90135      7.60917     12.38503        -0.776387      0.767514      1.017434
Pb       7.87034     11.68444      4.07715        -0.480084     -0.374560      0.512247
Pb       7.77286     11.78669     16.48417        -0.274999      0.040155      0.333189
Pb       7.73431     11.71296      8.21623         0.093198     -0.206317      0.058550
Pb       7.83089     11.56522     12.38803        -0.116769      0.365589      0.424050
Pb      11.76613      3.78813      4.30143         0.220169      0.087429     -0.656729
Pb      11.72293      4.10595      0.26320        -0.278641     -0.544506     -0.270584
Pb      11.42732     15.55732      4.15409         0.731251     -0.156627      0.029003
Pb      11.65777     15.59333     16.49643         0.376235      0.067933      0.738466
Pb      11.65557      4.12923      8.42631        -0.062534     -0.467444     -0.135665
Pb      11.60902      0.11944      8.36676         0.140742     -0.176596     -0.206427
Pb      11.82941      3.74543     12.48430        -0.369640      0.383363     -0.331084
Pb      11.55106     15.50196     12.35573         0.418765      0.343227      0.442695
Pb      11.64866      7.65273      4.04103         0.204860      0.179547      0.431057
Pb      11.68790      7.84582      0.02028        -0.017830     -0.026207      0.462160
Pb      11.65831      7.81493      8.29471        -0.035516     -0.126007     -0.386986
Pb      11.46451      7.98436     12.49941         0.663703     -0.411673      0.358975
Pb      11.82857     11.39770      4.23183        -0.286392      0.683733     -0.061198
Pb      11.80534     11.66175     16.59034        -0.244728     -0.107755      0.089181
Pb      11.77637     11.88787      8.42845         0.179873     -0.242207     -0.791517
Pb      11.76471     11.76265     12.40120        -0.088212     -0.505888      0.394988
Ti       1.90247      1.95105      2.18372        -0.295826     -0.164767     -0.821039
Ti       1.96388      1.97482     14.63839        -0.452576     -0.172642      1.319369
Ti       1.88979     13.65263      2.16078        -0.617570      1.037459      0.461571
Ti       1.91587     13.57965     14.67340        -0.112583      0.392263     -1.180632
Ti      13.59419      1.86062      2.22498        -0.085513      0.361176     -0.211087
Ti      13.68295      1.95918     14.62972         0.025448     -0.524714      1.083604
Ti      13.50382     13.58187      2.25546         0.463047      0.528624      0.624147
Ti      13.60438     13.62822     14.56428         0.963662      0.235582     -0.442348
Ti       1.86417      1.95075      6.35906         0.253488      0.398059      0.359759
Ti       1.93594     13.69704      6.24119        -0.825382     -0.661910      0.262763
Ti      13.62265      1.89328      6.54581        -0.690747      0.218305     -1.124400
Ti      13.55344     13.61300      6.35061         0.371558      0.405809     -0.539735
Ti       1.92239      1.97008     10.54991        -0.150626     -0.016080      0.416046
Ti       1.89492     13.59611     10.46548         0.363548      0.587263      1.001998
Ti      13.66983      1.87987     10.56293         0.135910      0.797221     -0.213189
Ti      13.72463     13.68870     10.56012         0.129418     -1.082996     -1.127843
Ti       1.95546      5.78422      2.25536         0.397294      0.217371     -0.968170
Ti       1.84764      5.93619     14.70528         0.042556     -1.067044      0.469055
Ti      13.71000      5.74657      2.23360        -0.367410      0.574609      0.700154
Ti      13.57634      5.81779     14.71540         0.474183     -0.467528     -0.279252
Ti       1.85240      5.91505      6.35335        -0.221421     -0.035201      0.115038
Ti      13.57980      5.81391      6.42418         0.194918      0.747564     -1.089734
Ti       1.97772      5.87533     10.58333        -1.054582      0.236405     -0.934966
Ti      13.55869      5.84409     10.61655         0.757016     -0.327658      0.389931
Ti       1.93799      9.82282      2.09640         0.133175     -0.923861     -0.486508
Ti       1.96771      9.78755     14.64632        -0.510934     -0.217528      0.355926
Ti      13.68651      9.61975      2.28275        -0.404043      0.410917     -1.402996
Ti      13.65302      9.65123     14.68807        -0.369640      0.984096     -0.338701
Ti       2.01915      9.74226      6.30496        -1.412951     -0.417859     -0.001818
Ti      13.71079      9.63746      6.38675        -0.512261     -0.164618      0.174422
Ti       2.03418      9.71472     10.46460        -0.506950     -0.951428      0.184221
Ti      13.67828      9.78390     10.53422         0.665517     -0.360180      0.883212
Ti       5.79584      1.97186      2.11888         0.644741     -0.161930      0.312331
Ti       5.90884      1.91715     14.74671        -0.981292      0.277682     -0.391118
Ti       5.76217     13.71684      2.19176         1.014746     -0.601797     -0.984433
Ti       5.83745     13.62421     14.66455        -0.280684      0.370473     -0.351485
Ti       5.91327      1.97303      6.30580         0.111874     -0.633956     -0.145556
Ti       5.78687     13.57917      6.27292         0.752837      1.140326     -1.228041
Ti       5.74930      1.85071     10.69586         0.209878     -0.221449      0.108742
Ti       5.81893     13.63044     10.51136         0.654843     -0.266360     -0.188826
Ti       5.84673      5.84369      2.22629        -0.150304      1.105887      0.278617
Ti       5.77557      5.90902     14.61764         1.278628     -1.166105      0.497684
Ti       5.74571      5.83329      6.34609         0.368369      0.674168     -0.171660
Ti       5.89087      5.63797     10.68775        -0.782987      1.042230     -0.704851
Ti       5.82206      9.83933      2.18487         0.406259     -1.076121     -0.026470
Ti       5.73993      9.78385     14.68961         1.517076     -0.158172     -1.568096
Ti       5.73345      9.76894      6.35759         1.095602     -1.551368     -1.044871
Ti       6.00245      9.63912     10.55044        -1.003198      0.060349     -0.378352
Ti       9.72897      1.87827      2.11969         0.000773      0.870232      0.531222
Ti       9.87859      1.97595     14.72319        -0.498876     -0.306187     -0.224695
Ti       9.67949     13.54280      2.19601         0.288265      1.061959     -0.682249
Ti       9.78277     13.58461     14.67313        -0.752126      0.070734     -0.062054
Ti       9.77798      2.05663      6.38614        -0.185181     -1.248824      0.330714
Ti       9.71730     13.65715      6.37869         0.058312      0.236142     -0.465853
Ti       9.78059      1.91015     10.56502        -0.261316      0.120491      0.626256
Ti       9.77970     13.58405     10.42824        -1.367294      1.056993     -0.172031
Ti       9.71033      5.77634      2.22918        -0.315226     -0.391708     -0.006208
Ti       9.75255      5.83334     14.77921        -0.336414     -0.481917     -0.177514
Ti       9.57790      5.79859      6.25548         0.405924      0.437103      0.560542
Ti       9.72501      5.74998     10.68963         0.995861     -0.634022     -0.350887
Ti       9.78684      9.78221      2.18164        -0.468210     -0.842186     -0.173742
Ti       9.68749      9.67090     14.85299        -0.007408      0.608500     -1.690251
Ti       9.76335      9.75610      6.33001         0.409518      0.529605     -0.318723
Ti       9.81696      9.78184     10.44450        -0.623273     -0.104954      0.058870
O       1.84157      1.95308      0.34241         0.041068     -0.218287      0.963855
O       1.97202      1.93111     12.88933         0.015116      0.100668     -1.449578
O       1.73366     13.67526      0.36488         0.224712     -0.202793      0.421747
O       1.93718     13.57786     12.82762         0.141503      0.222242      0.630780
O      13.61068      2.06721      0.44927         0.266320     -0.554888     -0.037137
O      13.49231      1.96254     12.90148         0.392908     -0.373072     -1.112272
O      13.62628     13.63980      0.49428         0.069885     -0.376549     -0.488952
O      13.55664     13.56813     12.73458        -0.177377      0.390932      1.425563
O       1.79096      1.91217      4.61865         0.237386      0.191381     -0.102497
O       1.89142     13.53497      4.49968         0.397896      0.625391     -0.379345
O      13.61513      2.00493      4.74485        -0.082411      0.151493     -0.226880
O      13.45967     13.67917      4.54847         0.501151     -0.318635      0.961658
O       1.90543      1.88508      8.78851         0.122756      0.107972     -0.563662
O       2.01226     13.49673      8.69732        -0.231700      0.470515     -0.361187
O      13.56163      1.85424      8.76983         0.661306      0.139465      0.141457
O      13.76178     13.47895      8.70644        -0.419776      0.181851      0.405916
O       1.98175      5.84413      0.42031        -0.020368     -0.215839      0.561231
O       1.83384      5.73649     12.93489         0.310807      0.245359     -0.292309
O      13.61650      5.84236      0.43527        -0.167932     -0.198397     -0.256098
O      13.78860      5.81288     12.92862        -0.533643     -0.022338     -0.331833
O       1.73152      5.82224      4.54332         0.406493     -0.128220     -0.000808
O      13.61437      5.80573      4.61519        -0.058980      0.018448     -0.077587
O       2.00371      6.07925      8.76513         0.252674     -0.683598      0.466434
O      13.55056      5.84777      8.83413         0.040852      0.253351     -0.681933
O       2.02700      9.73079      0.29298        -0.199509      0.367295      1.207229
O       1.98545      9.76172     12.89309        -0.110277      0.014473     -0.190726
O      13.57238      9.61957      0.46606         0.255172      0.210629     -0.017422
O      13.55638      9.69616     12.90021         0.353184      0.116123      0.456229
O       1.74714      9.72540      4.48280         0.514062      0.171656      0.489872
O      13.73210      9.56051      4.57453        -0.241093      0.660690     -0.331382
O       2.10153      9.72794      8.67761        -0.315844     -0.299112      0.206781
O      13.52876      9.61384      8.76957         0.317774      0.699545      0.063215
O       5.70105      1.86362      0.36402        -0.013733      0.386211     -0.273034
O       5.93145      1.78843     12.98319        -0.287492      0.056595     -1.037989
O       5.88967     13.65078      0.37099        -0.102604     -0.039689      0.674496
O       5.76899     13.70040     12.87966        -0.276971     -0.041881     -0.520167
O       5.93481      2.03080      4.49630        -0.244064     -0.046983      0.469712
O       5.71167     13.65225      4.44971         0.141763     -0.409539      1.094487
O       6.09113      2.00163      8.95815        -0.561259     -0.127616     -1.378629
O       5.79148     13.71054      8.69152        -0.096937     -0.272834     -0.529334
O       5.60996      5.96890      0.46683         0.436460     -0.610671     -0.526349
O       6.05022      5.95133     12.88925        -0.972147     -0.499822     -0.664893
O       5.67423      5.72074      4.54089         0.605275     -0.011699      0.366624
O       5.76193      5.56796      8.86479         0.366225      0.052426      1.028031
O       5.82117      9.77681      0.36704        -0.070503     -0.068797     -0.008689
O       5.87515      9.79477     12.86024         0.067690     -0.012994      0.288583
O       5.72326      9.81272      4.58510         0.036971     -0.096875      0.070099
O       5.97978      9.61293      8.77827        -0.156580      0.229173     -0.553789
O       9.83258      2.00762      0.37162        -0.130144     -0.240860     -0.341638
O       9.81868      1.69861     12.90682         0.141839      0.555814      1.022714
O       9.60300     13.63390      0.38633         0.184475     -0.194518      0.473775
O       9.75302     13.64730     12.86321         0.442737      0.178970      0.395369
O       9.62487      1.90910      4.60080         0.452616      0.200370     -0.315135
O       9.72052     13.81224      4.55312         0.190826     -0.430366      0.540611
O       9.73638      1.99894      8.81315        -0.407979     -0.146604     -1.223177
O       9.71799     13.68012      8.62583        -0.200255     -0.516987      0.363534
O       9.89572      5.76940      0.44642        -0.340030      0.072992     -0.419946
O       9.84898      5.99385     13.01242        -0.452850     -0.395462     -0.500807
O       9.53650      5.96280      4.48573         0.338933     -0.517770      0.154594
O       9.74671      5.68698      8.94067        -0.246553      0.193599     -0.733026
O       9.81467      9.70719      0.35976        -0.536454      0.342051      0.100103
O       9.78421      9.81728     12.94364        -0.000243     -0.518906      1.045274
O       9.81779      9.95762      4.48384        -0.243773     -1.034925      1.179901
O       9.83381      9.79489      8.64900        -0.341255     -0.202710      0.645536
O       3.81373      1.78101      2.50058         0.932459      0.607416     -0.140169
O       3.80976      1.86542     14.92424         0.962077      0.008951      0.225826
O       3.90053     13.72555      2.37622        -1.186653      0.215445      0.187441
O       3.84852     13.55656     14.99682        -0.164426      0.808744      0.130821
O      15.57050      2.10384      2.54548        -0.861439     -0.813461     -0.179845
O      15.59638      1.86981     14.90355        -0.599333      0.256359      0.228080
O      15.53375     13.68271      2.64057         0.344784     -0.729424     -0.429597
O      15.58188     13.39390     14.81289        -0.589190      0.615343      0.425026
O       3.95637      1.86414      6.58265        -0.306862      0.478688      0.335629
O       3.86962     13.61147      6.58831         0.154837     -0.057524      0.247408
O      15.54248      2.03192      6.84448         0.417149     -0.847553     -0.416230
O       0.01971     13.68641      6.60650        -0.478721     -0.131772      0.009097
O       3.84852      1.96233     10.83345         0.532673     -0.218185      0.206675
O       3.85097     13.55745     10.82610        -0.239333      0.304150     -0.321030
O      15.58053      1.93551     11.00331         0.112498     -0.287093     -0.458387
O      15.58164     13.70849     10.85525         1.405719     -0.391023     -0.167117
O       3.85625      5.75907      2.54050        -0.882779     -0.108374      0.338240
O       3.88505      5.88269     14.96572        -0.698606     -0.115103     -0.364828
O      15.55764      5.76459      2.39227         0.282558     -0.010565      0.315284
O      15.55239      5.74106     14.98670         0.571706      0.881197      0.529271
O       3.86277      5.80697      6.67654        -0.232069     -0.769741      0.115487
O      15.56910      5.96297      6.80641         0.188535     -0.356396      0.020712
O       3.89758      5.96814     10.99667         1.011078     -1.074889     -0.060571
O       0.03421      5.80307     10.77914        -0.622349      0.518891      0.459121
O       3.86093      9.75798      2.53755        -0.773986      0.468004     -0.254134
O       3.92536      9.81694     14.82218        -0.856971     -0.607423      0.592855
O      15.59466      9.84903      2.33872         0.412164     -0.435922      0.351467
O      15.53826      9.77416     15.01373         0.370116     -0.024348     -0.133591
O       3.84562      9.80823      6.58058         0.326502     -0.078192      0.225576
O      15.56051      9.62574      6.78249         0.422936      0.082398     -0.221196
O       3.99635      9.75955     10.83198        -0.734527     -0.760658     -0.199826
O       0.01143      9.69001     10.93995        -0.389075     -0.431647     -0.698934
O       7.78425      2.07606      2.26611        -0.607029     -0.267783      0.607352
O       7.76230      1.98359     15.05385         0.391952      0.153265     -0.043012
O       7.76446     13.50994      2.58735         0.274239      0.358663     -0.268866
O       7.69646     13.59759     14.79753         1.666313      0.010050      0.665840
O       7.88577      1.76915      6.60485        -1.684565      0.728890      0.527015
O       7.79358     13.69437      6.44931        -0.540692     -0.167090      0.847836
O       7.87890      1.91057     11.02122        -0.645429     -0.449789     -0.543249
O       7.73961     13.64614     10.78332         0.764069      0.023894      0.012664
O       7.80404      5.86062      2.33305        -1.244687      0.125712      0.440491
O       7.72594      5.80514     15.14477         0.456765      0.049055     -0.157249
O       7.71732      5.85190      6.68876         0.416170      0.017265     -0.044113
O       7.85773      5.53828     11.06688        -0.422885      0.738332     -0.888000
O       7.73090      9.77354      2.59946         0.237706      0.160857     -0.463703
O       7.76802      9.79540     14.90040         0.748699     -0.165907      0.725763
O       7.76901      9.64316      6.56006         0.686529     -0.109209      0.373444
O       7.85509      9.81754     10.80575         0.941345      0.020001     -0.065768
O      11.63067      1.87538      2.52736         0.512882      0.102383      0.270096
O      11.71122      1.84953     14.96855         0.120916      0.250483     -0.047243
O      11.64071     13.65095      2.58455        -0.374405      0.208779     -0.506483
O      11.66999     13.73678     15.02488        -0.223116     -0.152301     -0.517361
O      11.68521      2.07581      6.80073        -0.175064     -0.143918     -0.248907
O      11.67098     13.63071      6.74103         0.202352     -0.518506     -0.030944
O      11.69945      2.02122     10.79007         1.016328     -1.104538      0.524711
O      11.68484     13.55021     10.65541         0.265279     -0.036456      0.224318
O      11.55049      5.85597      2.59532         1.729736      0.126662      0.008204
O      11.70489      5.84038     15.03935         0.153392     -0.196588     -0.061456
O      11.64980      5.84405      6.68445        -0.532541     -0.251161      0.032158
O      11.69006      5.78661     10.90609        -0.107263     -0.042374      0.199359
O      11.67302      9.57420      2.39676         0.413605      0.705445      0.768536
O      11.68696      9.61397     15.05200        -0.160579      0.260950     -0.118636
O      11.68888      9.69748      6.65289        -0.337532      0.155861     -0.301362
O      11.72313      9.72925     10.94968        -0.646155      0.666251     -0.965505
O       1.89263      3.79598      2.56553         0.446511      1.267150     -0.096736
O       1.91082      3.86878     14.95171         0.284645      0.262776      0.044022
O       1.75553      0.02992      2.53652         0.453201     -0.695358     -0.116403
O       1.81933     15.57194     14.88777         0.345121     -0.746258      0.247588
O      13.50155      3.89353      2.51417        -0.138181      0.037816      0.289121
O      13.75871      3.86120     14.85824        -0.680169     -0.089764      0.454610
O      13.68395      0.00438      2.52497        -0.172917      0.127902     -0.142272
O      13.68806     15.53241     15.03196        -0.005083      0.015989     -0.356245
O       1.85375      3.90493      6.73541         0.398463     -0.433793     -0.082679
O       1.88990     15.60773      6.63463         0.321865     -0.022500      0.177687
O      13.65576      4.00892      6.72997         0.068152     -1.548145      0.556013
O      13.49497     15.58610      6.69244         0.716655     -0.005793      0.250444
O       1.94819      3.91642     10.79914         0.378065     -0.301092      0.264698
O       1.93219     15.56447     10.77749         0.012299     -0.247023      0.314777
O      13.70595      3.84446     10.77661        -0.425537      0.202594      0.617554
O      13.72253     15.49903     10.79659        -0.608196      1.558750      0.134027
O       1.95590      7.79128      2.46244        -0.501072      0.176504     -0.108039
O       1.96947      7.76910     15.01099        -0.481689      0.708646     -0.330574
O      13.65925      7.74674      2.57744         0.142371     -0.276808     -0.237960
O      13.65351      7.75790     14.95312         0.265803      0.037428      0.195725
O       2.00238      7.76310      6.49997         0.238456      0.887866      0.275848
O      13.59717      7.75213      6.78217        -0.099147      0.459284      0.190438
O       1.95083      7.78155     10.93726         0.252893      0.623480     -0.005651
O      13.58692      7.78862     10.88450         0.459022     -0.038929     -0.015751
O       1.96506     11.76252      2.51137        -0.215490     -0.510106     -0.583304
O       2.02295     11.66581     14.96612        -0.444943     -0.131972      0.290539
O      13.59715     11.64792      2.52812        -0.152371     -0.205543      0.190848
O      13.49175     11.75692     14.97443         0.034320     -0.903915      0.096336
O       1.88359     11.65606      6.50903         0.013092      0.320961      0.459162
O      13.67963     11.63458      6.60324        -0.185076      0.245555     -0.016525
O       1.86384     11.57545     10.68001         0.236564      1.263953      0.527547
O      13.89377     11.70225     10.94660        -1.618842     -0.934524     -0.895865
O       5.77529      3.90145      2.47978        -0.157132     -0.762133     -0.008356
O       5.66590      3.93821     14.86884         0.407940     -0.859326      0.457365
O       5.96761      0.00769      2.53141        -0.529017      0.280600     -0.123593
O       5.83282     15.60755     14.97821        -0.240867     -0.413085      0.285672
O       5.89711      3.85273      6.71192        -0.111958     -0.818405     -0.180375
O       5.82753     15.53932      6.48878        -0.143475      0.447815      0.678464
O       5.87198      3.75252     11.10283        -0.354790      1.144843     -0.195934
O       5.81706     15.57111     10.76516        -0.263274     -0.013122      0.633194
O       5.64265      7.79047      2.51564         0.757659     -0.053470      0.031500
O       5.90125      7.74004     14.92579        -0.470072      1.754365      0.458259
O       5.71847      7.70974      6.67520         0.328979      0.479323      0.093987
O       6.04798      7.69450     10.84988        -0.262412      0.099674     -0.140161
O       5.76555     11.67793      2.43903        -0.218399      0.713786      0.184347
O       5.77384     11.70350     14.95162         0.269884     -0.242902      0.280684
O       5.92921     11.60873      6.65322        -0.392117      1.682060      0.244597
O       5.83299     11.69948     10.66186         0.201410     -0.166657      0.554880
O       9.77519      3.87820      2.45696        -0.120561     -0.135225      0.435789
O       9.71523      3.90429     15.07683         0.278101     -0.548517     -0.482623
O       9.62164     15.57820      2.52953         0.083504      0.076080     -0.439138
O       9.64578      0.06331     15.21381         0.546409     -0.728789     -1.315039
O       9.68845      3.91385      6.57512        -0.107970      0.275107      0.140281
O       9.83418      0.03146      6.82869        -0.047633     -0.346420     -0.607334
O       9.84965      3.75575     10.92955        -0.392488      1.497943      0.558214
O       9.80308     15.55411     10.79937        -0.017314     -0.562228     -0.188190
O       9.64654      7.91665      2.58608         0.165320     -0.848739     -0.261121
O       9.66474      7.68295     15.17681         0.120286      1.675904     -0.486749
O       9.76199      7.69322      6.70523        -0.243330      0.916552     -0.267778
O       9.64095      7.80164     10.82818         0.651459      0.114173     -0.376224
O       9.81564     11.68189      2.47792        -0.199404      0.071557      0.062651
O       9.79513     11.72167     14.97054        -0.011814     -0.132266      0.212322
O       9.65945     11.69137      6.57834         0.178240      0.067265      0.296793
O       9.76624     11.73594     10.73859        -0.011877     -1.112741      0.081834
