  # total energy = -7881.91424777 
CRSYTAL
PRIMVEC
    15.6080000000000005    0.0000000000000000    0.0000000000000000
     0.0000000000000000   15.6080000000000005    0.0000000000000000
     0.0000000000000000    0.0000000000000000   16.6239999999999988
PRESSURE
-1.02422 -0.878042 -0.495555 -0.125175 0.094068 -0.054303
PRIMCOORD
320 1
Pb       4.01484      3.88107      4.21153        -0.260350      0.396230     -0.236802
Pb       3.90812      3.90798     16.61662        -0.154895     -0.124076     -0.455966
Pb       3.93696      0.04702      4.10988        -0.316150      0.107977     -0.311988
Pb       3.83325     15.55791     16.51878         0.121950      0.315911      0.170596
Pb      15.53302      3.86067      4.09569         0.375182     -0.388657      0.647464
Pb      15.57430      3.80426     16.60152         0.398460     -0.164223     -0.376868
Pb      15.59087     15.57423      4.07779        -0.318312      0.561893      0.163391
Pb       0.02553      0.01660     16.61604        -0.030764      0.181767      0.069659
Pb       3.85689      3.85987      8.26327         0.207370      0.289642      0.662384
Pb       3.98603      0.09161      8.28693        -0.624860     -0.101161     -0.063049
Pb      15.53045      3.93705      8.23954         0.521117     -0.420053      0.438191
Pb       0.04501     15.58224      8.25693         0.012932      0.415222      0.115730
Pb       3.70046      3.98653     12.62927         0.410750     -0.201431     -0.568854
Pb       3.81109     15.47250     12.51935         0.696617      0.015837     -0.581649
Pb      15.56640      3.90217     12.51165         0.544759     -0.372872     -0.680162
Pb       0.11703     15.58863     12.47025        -0.627785     -0.114155     -0.257110
Pb       3.74028      7.86641      4.00752         0.738085      0.090858      0.733416
Pb       3.84576      7.66200     16.58157         0.313161      0.563352     -0.685095
Pb       0.03187      7.88290      4.04177        -0.086790     -0.102034      0.587577
Pb      15.54589      7.76374     16.60700         0.031932      0.026877     -0.545037
Pb       3.92145      7.77830      8.33956         0.149012     -0.128280     -0.463940
Pb      15.40242      7.75649      8.51103         0.492252     -0.171817     -0.801912
Pb       3.90060      7.85539     12.49395        -0.103370     -0.455252     -0.167083
Pb      15.42868      7.72302     12.48792         0.353712      0.289005      0.459367
Pb       3.88392     11.71269      4.09858         0.008406     -0.459741      0.289891
Pb       3.88981     11.67130     16.54039         0.159633     -0.167683     -0.021666
Pb      15.57734     11.79595      4.11250        -0.116983     -0.766241      0.032034
Pb      15.59654     11.80795      0.04633         0.287395     -0.359459      0.167917
Pb       3.84521     11.85941      8.32719         0.425632     -0.908970     -0.654906
Pb      15.52197     11.66830      8.14412         0.025677     -0.076479      0.658279
Pb       3.85068     11.73709     12.35754         0.499005     -0.073141      0.055698
Pb       0.02509     11.54775     12.41872        -0.427614      0.370929     -0.513448
Pb       7.74615      3.71351      4.13145         0.029141      0.806807     -0.057016
Pb       7.70914      3.83663     16.55696         0.173530     -0.268408     -0.188844
Pb       7.74915     15.50148      4.13687         0.320349      0.212313     -0.754465
Pb       7.79443      0.02933     16.61777         0.094237     -0.383873     -0.502860
Pb       7.73292      3.82902      8.50407        -0.214647      0.393716     -0.494862
Pb       7.86519     15.55918      8.38041         0.068154      0.218818     -0.291705
Pb       7.78650      3.74985     12.49344         0.171805      0.213730      0.180915
Pb       7.87295      0.00970     12.52077        -0.249152      0.076651     -0.157953
Pb       7.81394      7.80486      4.04721        -0.113965     -0.118479      0.260973
Pb       7.73138      7.83082     16.53968         0.338606     -0.195495      0.084662
Pb       7.94778      7.86563      8.25386        -0.871059     -0.386771      0.601472
Pb       7.93800      7.63178     12.43617        -0.530437      0.327610      0.449383
Pb       7.82758     11.75628      4.04235        -0.114214     -0.616797      0.291280
Pb       7.77071     11.69239     16.49474        -0.098447      0.268092      0.852157
Pb       7.70291     11.70403      8.27699        -0.297598     -0.399434     -0.482464
Pb       7.82074     11.57980     12.45389        -0.720090     -0.098886     -0.405436
Pb      11.76728      3.89019      4.29870        -0.362912     -0.283126     -0.168108
Pb      11.74726      4.06103      0.16921        -0.050160     -0.443499     -0.473843
Pb      11.52973      0.04242      4.18209         0.296938      0.053555     -0.206219
Pb      11.64493     15.59440     16.53267         0.150001     -0.395316      0.277441
Pb      11.64185      4.06810      8.39722         0.007450     -0.507615     -0.581685
Pb      11.52337      0.00207      8.29839         0.407307      0.250604      0.049068
Pb      11.79099      3.75844     12.45512        -0.957656      0.033295      0.658630
Pb      11.61764     15.48643     12.37832         0.228520      0.221221     -0.022195
Pb      11.72648      7.62123      3.98574        -0.676425      0.656408      0.472501
Pb      11.67368      7.80775      0.02223        -0.155048     -0.315149     -0.548153
Pb      11.65714      7.82624      8.21088        -0.204686      0.064907     -0.113401
Pb      11.50382      7.90876     12.50287         0.784802     -0.572473      0.435462
Pb      11.75880     11.53383      4.29624        -0.171686      0.367095     -0.651459
Pb      11.88053     11.69981     16.58555        -0.556447      0.324397      0.291614
Pb      11.75969     11.82431      8.39550         0.206932     -0.133840     -0.037434
Pb      11.66493     11.71084     12.36978         0.703507      0.257565     -0.358251
Ti       1.92199      2.00973      2.11863        -0.149525     -0.486155     -0.584962
Ti       1.96470      1.91672     14.51556        -0.161901      0.722975      2.841508
Ti       1.92686     13.78819      2.19064        -0.742552     -0.787739     -0.678589
Ti       1.84465     13.61041     14.64855         0.853140      0.050898      0.337280
Ti      13.54621      1.93000      2.17971         0.470265     -0.410156      0.227139
Ti      13.69563      1.78346     14.62411        -0.023428      1.234294      0.538956
Ti      13.58822     13.68814      2.26772        -0.421644     -0.197297      0.039210
Ti      13.70071     13.57819     14.65435        -0.805125      0.001985     -0.986267
Ti       1.97834      1.91078      6.31788        -0.896990      0.057731     -0.342347
Ti       1.92868     13.58241      6.31593         0.482616      0.633652      0.174187
Ti      13.61058      1.89905      6.49375         0.116141      0.197727     -0.074019
Ti      13.61254     13.65162      6.43031        -0.391986     -0.114096     -0.691037
Ti       1.95172      1.88103     10.52341         0.170778      1.064008      0.398201
Ti       1.94699     13.57868     10.40271        -0.548043      0.143846      1.669875
Ti      13.66696      1.96493     10.53560         0.096880     -0.918309      0.562564
Ti      13.72023     13.71991     10.49628        -0.554416     -0.974646     -0.298978
Ti       2.00893      5.78270      2.23403        -0.399059     -0.238474     -0.078029
Ti       1.90627      5.84367     14.68693         0.337065     -0.047943     -0.292797
Ti      13.69761      5.76873      2.27129        -0.663394      0.011318     -0.180024
Ti      13.65054      5.63182     14.62941        -0.139611      2.093243      0.693041
Ti       1.92227      5.77118      6.46023        -0.080876      0.069820     -0.968833
Ti      13.57880      5.88051      6.45317         0.856497     -0.628866     -0.211866
Ti       1.95396      5.79734     10.48194         0.205271     -0.605932      0.921358
Ti      13.61611      5.83828     10.63072        -0.229772      0.037383     -0.325772
Ti       1.96343      9.79883      2.07634        -0.359593      0.260324     -0.436369
Ti       1.91488      9.73610     14.62966        -0.303745     -0.407537      0.990261
Ti      13.63021      9.72975      2.14477         0.056194      0.435536      1.320925
Ti      13.63032      9.68670     14.72269         0.704178     -0.745527     -0.695893
Ti       1.97381      9.64984      6.44180         0.276704      0.107487     -0.502469
Ti      13.70651      9.70712      6.25868        -0.094791      0.150591      1.016128
Ti       1.99189      9.64567     10.48631        -0.050310      0.243188      0.191623
Ti      13.67830      9.65795     10.44580        -0.226730      1.746977      1.223474
Ti       5.81357      1.93943      2.05533        -0.150004      0.327632      0.643536
Ti       5.79765      1.84137     14.63886         0.780004      0.112636      1.564367
Ti       5.80820     13.62477      2.19021         0.599497      0.601466     -0.648780
Ti       5.81120     13.63736     14.67724         0.342470     -0.028007     -0.439454
Ti       5.87049      1.95239      6.37876         0.161489      1.258812      0.078626
Ti       5.81716     13.70536      6.23581         0.003839     -1.756796      0.447285
Ti       5.78224      1.90071     10.64119        -0.162137      0.031905      0.992200
Ti       5.92642     13.66049     10.46334        -0.891870      0.212698      2.534755
Ti       5.81457      5.93366      2.09768         1.017098     -0.594640      0.773007
Ti       5.92827      5.75733     14.68224        -0.867601      0.888117      0.080582
Ti       5.80987      5.82610      6.35971         0.218483     -0.013380     -0.529161
Ti       5.79563      5.80471     10.65632         0.324771     -0.457265     -1.324250
Ti       5.86446      9.80907      2.11770        -0.211652     -0.422456      1.150654
Ti       5.80930      9.74393     14.57921         0.271238     -0.122154     -0.425144
Ti       5.84730      9.65945      6.30608        -0.138507      1.017381     -0.192239
Ti       5.82341      9.65904     10.48948         0.512578      0.996108      0.902251
Ti       9.68784      1.91954      2.15199         0.664608     -0.402863      0.849489
Ti       9.91387      1.92187     14.74124        -1.127558     -0.047722     -1.413221
Ti       9.81260     13.60079      2.26135         0.233239     -0.044312     -0.562879
Ti       9.73975     13.58203     14.63898         0.181261      1.162093     -0.167433
Ti       9.67717      1.99901      6.38334         0.498527      0.530043     -0.122677
Ti       9.71734     13.65939      6.30493        -0.143920      0.134187     -0.034210
Ti       9.76824      1.94889     10.56917         0.109859     -0.360877     -0.025158
Ti       9.64791     13.62989     10.45167         1.187311      0.364052      0.142677
Ti       9.67639      5.71192      2.19475        -0.179755      1.440884     -0.291199
Ti       9.79270      5.71275     14.78039        -0.048713      1.170395     -1.018109
Ti       9.60841      5.88965      6.33989        -0.007779     -0.791581     -0.665857
Ti       9.79303      5.81242     10.56734        -0.821961     -0.173137      0.526940
Ti       9.72618      9.69655      2.20724         0.051070      0.398922      0.126492
Ti       9.69692      9.80035     14.74356         0.421311     -1.430999      0.339234
Ti       9.79906      9.79984      6.39402        -0.634331     -0.604549     -1.653764
Ti       9.77274      9.71058     10.51472        -0.491354      0.223792     -1.245884
O       1.82002      1.97545      0.29296         0.289892     -0.140080      0.894662
O       1.93953      1.96325     12.82065        -0.183203      0.006711     -2.110594
O       1.63963     13.77798      0.36414         0.850304     -0.107540      0.732883
O       1.85960     13.53615     12.87199         0.163277      0.304191      0.256958
O      13.67317      1.92884      0.39545        -0.224630      0.254696      0.228366
O      13.65254      1.78186     12.87187        -0.140847      0.525423     -0.739959
O      13.70869     13.68329      0.49156        -0.051112     -0.004637     -0.753760
O      13.72867     13.57362     12.86312        -0.045987     -0.138361      0.454191
O       2.02440      1.87873      4.49511        -0.084297     -0.053846      0.522353
O       2.07207     13.70314      4.50008        -0.503575     -0.277603      0.115737
O      13.58550      1.88773      4.71896         0.052826      0.115468      0.282912
O      13.50643     13.61176      4.62064         0.278971      0.368665      0.752409
O       2.09282      1.82940      8.76329        -0.434679     -0.041598     -0.223410
O       1.87858     13.63046      8.67147         0.214315     -0.005962     -0.748042
O      13.81214      2.03333      8.81373        -0.550201     -0.231517     -0.863794
O      13.69374     13.44706      8.67404         0.027469      0.309763      0.053913
O       1.98986      5.85667      0.44636         0.114167     -0.201555      0.275063
O       1.94937      5.91998     12.89874        -0.256405     -0.403349      0.165835
O      13.56789      5.64553      0.49773         0.248963      0.046981     -0.069078
O      13.65752      5.74677     12.84983         0.339754      0.160624     -0.052102
O       1.93867      5.62538      4.66392        -0.102808      0.493989     -0.493978
O      13.64592      5.71718      4.69254        -0.120431      0.011372     -0.710180
O       2.03587      5.61810      8.73022        -0.134730      0.664863     -0.304960
O      13.61106      5.96408      8.81973        -0.168462     -0.308235     -0.162387
O       2.06437      9.78623      0.28099        -0.240695     -0.421691      1.122218
O       2.02220      9.80715     12.83414        -0.329829     -0.408251      0.375911
O      13.56214      9.62291      0.38633         0.101235      0.327165      0.059940
O      13.72599      9.61529     12.89912        -0.126525      0.361560      0.715000
O       1.93257      9.69557      4.63991        -0.112126     -0.158359     -0.292577
O      13.79337      9.77107      4.52711        -0.243107     -0.160452     -1.035659
O       2.03253      9.70021      8.73523         0.049216     -0.029923     -0.830348
O      13.79390      9.80959      8.67826        -0.618039     -0.920985     -0.144438
O       5.82789      1.96071      0.28375         0.234198     -0.403245      0.400202
O       5.88020      1.78177     12.93160         0.374057      0.267422     -1.563969
O       5.96119     13.60292      0.42471        -0.550066     -0.031655     -0.051404
O       5.67496     13.72110     12.90255         0.389870     -0.121434      0.370308
O       5.87246      2.12058      4.58188        -0.125053     -0.657808      0.364484
O       5.69898     13.56517      4.43280        -0.088349      0.625072      1.048894
O       5.79949      1.97787      8.87906         0.215953     -0.352496     -1.150394
O       5.93194     13.73129      8.74055        -0.040731      0.113765     -1.587765
O       5.80001      5.77323      0.31608        -0.178074      0.346714     -0.004009
O       5.82426      5.77231     12.91986         0.467452      0.313234     -0.379928
O       5.89451      5.72580      4.54690        -0.280877      0.091504      0.678246
O       5.78949      5.78091      8.82926        -0.186048      0.188303      0.980902
O       5.81070      9.87768      0.39020        -0.106905      0.091548     -0.744279
O       5.99555      9.88180     12.74658        -0.557330     -0.520677      1.561322
O       5.89107      9.72297      4.50957        -0.196444      0.216072      0.402348
O       5.73073      9.78160      8.73657         0.110114     -0.232157     -0.422435
O       9.78118      1.91371      0.38538         0.064863     -0.030334     -0.451111
O       9.99280      1.85552     12.89090        -0.636526     -0.274113      0.826942
O       9.90001     13.63886      0.46432        -0.352985     -0.166928      0.041838
O       9.91011     13.74278     12.83307        -0.668741     -0.647402      0.526086
O       9.63925      1.95051      4.58686        -0.162142     -0.223589      0.167140
O       9.79941     13.68849      4.46530        -0.345894     -0.004155      1.237046
O       9.65389      2.05326      8.77539         0.402725     -0.111380     -0.316354
O       9.52859     13.58550      8.63635         0.463348      0.425502      0.803817
O       9.83054      5.78670      0.35860        -0.114810     -0.459028      0.518878
O       9.68676      5.94711     12.97510         0.313884     -0.094662     -0.057993
O       9.54474      5.93165      4.52796         0.368938     -0.116216      0.522134
O       9.75084      5.81672      8.78380         0.433045     -0.113886      0.088023
O       9.66092      9.85631      0.43209         0.834240     -0.340179     -0.271603
O       9.70109      9.62489     12.94714         0.156151      0.517801     -0.094687
O       9.62036      9.58674      4.54678         0.155998      0.735336      1.466751
O       9.85239      9.64043      8.68107        -0.153604      0.382439      0.865263
O       3.89848      2.00127      2.34399         0.033614     -0.721602      0.295198
O       3.91835      1.88009     14.78870        -0.054345      0.009815      0.673337
O       3.74454     13.82264      2.34752         0.713571     -0.572156      0.014357
O       3.91467     13.73700     15.13811        -1.014705     -0.632782     -0.585202
O      15.48683      2.00530      2.46689         0.637096      0.052844      0.269706
O       0.03647      2.00804     14.82009        -0.693172     -0.082686      0.320654
O      15.46491     13.52229      2.66242         1.417288      1.344879     -0.190754
O      15.58949     13.68476     15.01143         0.383462     -0.110346     -0.300920
O       3.84336      2.06804      6.70839         1.610456     -0.692316     -0.418316
O       3.88548     13.53065      6.67495         0.504977      0.461865     -0.156960
O       0.02205      1.79470      6.64756         0.038931      0.346760      0.175751
O      15.57991     13.57668      6.50460         0.221396      0.370592      0.195525
O       3.90404      1.97930     10.88694        -0.314457     -0.326401      0.153834
O       3.87753     13.71844     10.78481        -0.458450     -0.525263     -0.422701
O       0.00225      1.99053     10.86110        -0.216973     -0.148628      0.228199
O      15.56599     13.52867     10.81210         0.919724      0.362189     -0.013428
O       3.91407      5.77522      2.56427        -0.435429      0.158035     -0.300099
O       3.91427      5.89679     14.89638        -0.287168     -0.104874      0.583244
O      15.55188      5.62629      2.54674         0.553872      0.503397     -0.284900
O      15.60421      5.85864     15.06978        -0.383521     -0.899766     -0.232400
O       3.90001      5.63418      6.68050         0.211127      0.636419     -0.138422
O      15.58510      5.86159      6.86069        -0.165873     -0.074524     -0.263567
O       3.89334      5.63247     11.00470         0.280153      0.951559     -0.561171
O      15.59330      5.94927     10.85320         0.206571     -0.641907     -0.326485
O       3.87531      9.75187      2.45663        -0.956920     -0.085185      0.207195
O       3.96323      9.66185     14.96171        -1.029660      0.462059     -0.397535
O      15.54406      9.56469      2.43559         0.663737      0.634912     -0.306298
O       0.04929      9.75202     15.01519        -0.061549     -0.119810     -0.111586
O       3.90461      9.79876      6.55684        -0.058734     -0.056965      0.462347
O      15.59190      9.72043      6.64218         0.395542     -0.206215      0.231982
O       3.91533      9.83440     10.88576         0.206702     -0.180543     -0.116713
O       0.06159      9.49922     10.71896        -0.232539      0.406094      0.427120
O       7.84059      1.76702      2.48994        -1.326983      0.529235     -0.176481
O       7.87457      1.92650     14.96178        -0.347079     -0.330478      0.172334
O       7.72706     13.63685      2.52861         0.641112     -0.126232      0.227461
O       7.80863     13.64854     14.98757         0.628422     -0.015963     -0.405998
O       7.77059      2.01506      6.85677        -0.849581     -0.726450     -0.599921
O       7.76419     13.77486      6.53256        -0.300514     -0.039700     -0.152488
O       7.89429      1.77472     10.87813        -1.074919      0.352631      0.492305
O       7.82309     13.77304     10.82491         0.028461     -0.165047      0.147309
O       7.68541      5.97573      2.46981         0.686468     -0.611246     -0.527612
O       7.82308      5.91932     14.98292        -0.349994     -0.411430      0.277740
O       7.80985      5.95969      6.81112        -0.727148     -0.240349     -0.350300
O       7.84031      5.97853     10.83370        -0.212251     -0.746686      0.151389
O       7.76627      9.84463      2.37316         0.013684     -0.230523      0.434404
O       7.74406      9.74470     15.11459         0.867147      0.141604     -0.857331
O       7.77204      9.64255      6.77513         0.365712      0.902400     -0.322411
O       7.83633      9.74471     10.75953         0.507141     -0.111061     -0.108137
O      11.61377      1.93649      2.63243         0.113999      0.086460     -0.373550
O      11.76911      1.98241     15.04070        -0.051971     -0.315479      0.069515
O      11.71507     13.62791      2.55352        -0.466563      0.011322     -0.000456
O      11.80171     13.49609     14.92315        -0.378009      0.275486      0.330611
O      11.61234      1.95823      6.64996         0.480517     -0.054888      0.589300
O      11.64213     13.65509      6.82145         0.140406      0.290614     -0.344610
O      11.67713      1.76195     10.82665         0.873250      1.117669     -0.277103
O      11.76191     13.50891     10.73811        -0.747427      0.247746     -0.075574
O      11.63749      5.75443      2.55633         0.129795     -0.293125      0.004520
O      11.73564      5.69298     14.97162        -0.016956      0.389223      0.317254
O      11.65140      5.80659      6.69885        -0.053619      0.190695      0.161472
O      11.67858      5.82931     10.91537        -0.051496     -0.217571     -0.174475
O      11.67174      9.76612      2.73738         0.445856     -0.676690     -1.078609
O      11.75603      9.84212     15.03071        -0.808206     -0.285542     -0.262214
O      11.72033      9.70668      6.51766        -0.471277      0.037580      0.290598
O      11.71632      9.72313     10.75624        -0.299530     -0.315820      0.319340
O       1.99172      3.81559      2.41411        -0.320823      1.276055      0.301581
O       2.02945      3.87648     14.95732        -0.215298      0.485709     -0.193035
O       1.78530      0.06110      2.35720        -0.153720     -0.623557      0.523002
O       1.97947      0.05326     14.79238        -0.378270     -1.448065      0.409849
O      13.49205      3.81937      2.73176         0.379155      0.356740     -0.708242
O      13.62952      3.85937     14.92310         0.591179     -0.986771      0.141860
O      13.61504      0.02484      2.54776         0.068100     -0.138185      0.120022
O      13.69890     15.59189     14.92276        -0.221197     -1.252372      0.397102
O       1.88682      3.81524      6.67422        -0.304712     -0.365221      0.228490
O       2.09578     15.54028      6.69741        -0.391246     -0.061237     -0.226301
O      13.61642      3.88889      6.93007        -0.130300     -0.103080     -0.842414
O      13.68299     15.59953      6.96474        -0.725003     -0.403329     -0.816019
O       1.92231      3.89670     10.91441        -0.291110     -0.230236      0.136289
O       1.85358     15.59955     10.91104         0.304429     -0.729515     -0.447712
O      13.50110      3.87660     10.91732         0.908658      0.024860     -0.493306
O      13.63103     15.56846     10.67181         0.495543     -0.068097      0.153213
O       1.86739      7.70742      2.55849         0.421761      0.179068     -0.324811
O       1.78614      7.76514     14.98269         1.017882      0.553239      0.075414
O      13.61948      7.72023      2.45655        -0.122379     -0.402876      0.294096
O      13.70534      7.71849     15.05007        -0.389432      0.420988     -0.024816
O       2.08942      7.67250      6.69300        -0.265961      1.054714      0.133976
O      13.65538      7.76388      6.59858        -0.193773      0.400551      0.484483
O       2.20036      7.70061     10.66056        -0.090581      0.691874      0.318834
O      13.66348      7.71721     10.93046        -0.521724      0.804648     -0.456754
O       1.80255     11.66311      2.28358         0.393019      0.187130      0.710554
O       1.96547     11.71699     14.98527         0.062692      0.108613     -0.106655
O      13.64594     11.66900      2.44465        -0.083257     -0.658734      0.166196
O      13.82167     11.60579     15.11175        -0.494873      1.028985     -0.453154
O       1.92880     11.68217      6.75971         0.121240      0.106635     -0.489725
O      13.54201     11.65722      6.56799         0.358314      0.343953      0.393634
O       1.93925     11.67669     10.81720        -0.024369      0.042787     -0.399612
O      13.60115     11.57877     10.77044         0.673649     -0.642921      0.439910
O       5.90400      3.84309      2.30351         0.098971     -0.097641      0.425766
O       5.85606      3.84748     15.03121         0.054334      0.257525     -0.438452
O       5.80952     15.56477      2.51922        -0.078214      0.774910      0.084053
O       5.89731     15.51653     15.11953        -0.173719      1.093831     -0.307659
O       5.90880      3.95205      6.72767         0.193416     -1.131446      0.020427
O       5.75061      0.04712      6.53385        -0.059404     -0.101732      0.079139
O       5.97574      3.86378     10.98141         0.200340     -0.190236     -0.297445
O       5.80921     15.58824     11.00584         0.186571     -0.019898     -0.734678
O       5.79480      7.84627      2.36487        -0.326147     -0.305510     -0.085973
O       5.83314      7.84941     15.04174         0.273316     -0.464564     -0.372972
O       5.79656      7.79721      6.60102        -0.273290     -0.530960      0.292483
O       5.79444      7.82561     10.87984        -0.390863     -0.699010     -0.085210
O       5.67496     11.75261      2.53084         0.127942     -0.548902     -0.184417
O       5.85767     11.72110     14.88706        -0.225164     -0.517624      0.333740
O       5.92771     11.74481      6.67924        -0.114159      0.346740     -0.140569
O       6.00757     11.78347     10.85122        -0.480010     -0.022435     -0.439212
O       9.59704      3.89019      2.47439         0.091041     -0.737117     -0.007070
O       9.70238      3.85302     14.85233         0.136015     -0.098384      0.545121
O       9.73513     15.57448      2.46581         0.170674     -0.196465      0.393053
O       9.82098     15.52901     14.88539         0.290739      0.235918      0.837480
O       9.60680      3.93228      6.54542         0.377105      0.062128      0.514690
O       9.73624      0.00942      6.63633        -0.152883     -0.100965      0.392865
O       9.66702      3.81764     11.03232         0.564885      1.139164     -0.766255
O       9.81918     15.57280     10.67602        -0.039665     -1.005678      0.195921
O       9.77062      7.70126      2.40558        -0.034293      1.112428      0.125566
O       9.85747      7.79358     15.06854        -0.160782      0.862048      0.112770
O       9.69892      7.83307      6.69626         0.789811     -0.214492      0.159087
O       9.82559      7.75948     10.88628        -0.199270      0.664445     -0.303082
O       9.75377     11.62541      2.66833         0.025300      0.694336     -0.395146
O       9.71535     11.71228     14.95187         0.089625     -0.554025     -0.148532
O       9.72296     11.79607      6.71188        -0.156001     -1.371500     -0.648799
O       9.73388     11.71462     10.90924        -0.021994     -0.622632     -0.465012
