  # total energy = -7883.47508778 
CRSYTAL
PRIMVEC
    15.6080000000000005    0.0000000000000000    0.0000000000000000
     0.0000000000000000   15.6080000000000005    0.0000000000000000
     0.0000000000000000    0.0000000000000000   16.6239999999999988
PRESSURE
-0.303174 -0.387915 -0.064888 0.189071 -0.111872 -0.047572
PRIMCOORD
320 1
Pb       3.81530      3.81338      4.11197         0.457228      0.224921      0.310577
Pb       3.84307      3.83572     16.51815         0.407972     -0.173728      1.161213
Pb       3.91171     15.49710      4.11683        -0.187836      0.112191      0.442359
Pb       3.98326     15.58836     16.53998        -0.607981      0.340679      0.676267
Pb       0.02766      3.93982      4.11243        -0.063481     -0.106359      0.029441
Pb       0.03580      3.87291     16.61412        -0.177503     -0.012432      0.320984
Pb       0.02291     15.51967      4.18447        -0.000450     -0.195938     -0.171026
Pb      15.60644      0.00426     16.55401        -0.248150     -0.569535      0.493918
Pb       4.00662      3.89600      8.18713        -0.627278      0.096501      0.938472
Pb       3.87404     15.41607      8.18435         0.052064      1.148158      0.870614
Pb      15.59082      3.91479      8.28022        -0.302993     -0.082485     -0.118065
Pb      15.50891     15.51791      8.32193        -0.023916      0.524119     -0.032421
Pb       3.86842      3.78945     12.43367        -0.194389      0.304420     -0.488889
Pb       3.95530      0.08940     12.52279        -0.098480     -0.221555     -0.433303
Pb      15.60667      4.03877     12.54347         0.013184     -0.510770     -0.668633
Pb       0.05323     15.51790     12.42549        -0.162773      0.439740      0.321662
Pb       3.95451      7.76593      3.98299        -0.149839     -0.460444      0.888656
Pb       3.90751      7.82370     16.59305        -0.189198     -0.162842      0.054908
Pb      15.44195      7.75517      4.10450         0.344212      0.045645      0.159964
Pb      15.59493      7.72218     16.57702         0.049440      0.547700      0.233019
Pb       3.76146      7.77706      8.30138         0.331459      0.243058      0.360539
Pb      15.54608      7.71460      8.30858         0.123823      0.287920     -0.030381
Pb       3.88108      7.73748     12.35972        -0.206649      0.302799     -0.116445
Pb      15.56716      7.75831     12.38230         0.227844     -0.043280      0.132593
Pb       3.89373     11.66330      4.12586         0.237700      0.136382      0.697300
Pb       3.83792     11.73857      0.05937         0.274421     -0.220175     -0.795420
Pb      15.58678     11.61832      4.10528         0.096949     -0.027955      0.183875
Pb      15.58614     11.59231     16.54040         0.092859      0.393265     -0.341091
Pb       3.90760     11.72278      8.42029        -0.064440     -0.641792     -0.753271
Pb       0.07601     11.74092      8.27416        -0.430605     -0.302807      0.210134
Pb       3.79745     11.65052     12.44801         0.129152     -0.200913      0.319451
Pb      15.50941     11.81874     12.51592         0.223033      0.079932     -0.151688
Pb       7.82414      3.91642      4.08094        -0.228656     -0.228941      0.885265
Pb       7.82786      3.84789     16.60315        -0.232088      0.121095      0.286620
Pb       7.85286      0.01892      4.20057        -0.142657      0.026149     -0.172770
Pb       7.77502     15.57552     16.52374         0.500289      0.413412      0.266540
Pb       7.89360      3.80189      8.23294        -0.442492      0.227432      0.230401
Pb       7.72509      0.02099      8.14211         0.615480      0.354095      1.167138
Pb       7.86757      3.86217     12.51944        -0.507973     -0.332027     -0.693472
Pb       7.76215     15.57825     12.32553        -0.521773      0.146780      0.217294
Pb       7.92996      7.77661      4.15271        -0.833773      0.186094      0.632573
Pb       7.65461      7.60083      0.03956         0.337776      0.216358     -0.034814
Pb       7.74717      7.72578      8.22707         0.178965      0.178074      0.359087
Pb       7.64156      7.91792     12.46447         0.056499     -0.026008     -0.130426
Pb       7.81153     11.64687      4.10401        -0.454109      0.363336      0.914119
Pb       7.80251     11.75569     16.59321        -0.355134     -0.246704      0.267989
Pb       7.95196     11.66288      8.38965        -0.692745     -0.025904      0.005736
Pb       7.78365     11.82224     12.44017        -0.079234     -0.507491     -0.011335
Pb      11.66715      3.81004      4.04019         0.436959      0.256455      0.485503
Pb      11.64535      3.82036      0.07459        -0.178576      0.242498     -0.498627
Pb      11.75262     15.54398      4.11825         0.011992     -0.197361     -0.219660
Pb      11.74062     15.59483     16.52101        -0.186872      0.083752      0.272349
Pb      11.67677      3.87111      8.29300         0.264600     -0.204903     -0.054982
Pb      11.81633     15.60552      8.37196        -0.311569      0.233183     -0.231911
Pb      11.63123      3.92150     12.32666         0.204219     -0.244101      0.409622
Pb      11.50166      0.09098     12.45247         0.686868      0.019227      0.546574
Pb      11.68548      8.03180      4.25222         0.213713      0.140631     -0.407076
Pb      11.79307      7.76270     16.59126        -0.836772      0.080983      0.122370
Pb      11.71167      7.66236      8.38671        -0.174666      0.446561     -0.038186
Pb      11.73555      7.85937     12.44598        -0.198529     -0.358204     -0.124111
Pb      11.81195     11.79311      4.08206        -0.421797     -0.331201      0.726444
Pb      11.51749     11.62095     16.61514         0.304951      0.261876      0.218758
Pb      11.60193     11.71617      8.37962         0.145690     -0.038868     -0.110032
Pb      11.67921     11.59704     12.51120        -0.466601      0.512174     -0.469061
Ti       1.90075      1.77792      2.21449         0.419051      1.303078     -1.026107
Ti       1.84500      1.90063     14.72313         1.358784     -0.499943      0.663199
Ti       1.97011     13.53709      2.18807        -0.236619      0.416714      0.648308
Ti       1.93429     13.64241     14.81565        -0.088699     -0.231461     -1.546865
Ti      13.68564      1.95748      2.14210         0.112397     -0.639609      0.374140
Ti      13.64403      2.00434     14.73922        -0.810931     -0.455770     -1.444622
Ti      13.67196     13.64685      2.15284        -0.060066      0.209203     -0.556166
Ti      13.60667     13.67157     14.66226         0.426458      0.604280      0.051363
Ti       1.91959      2.01835      6.37208         0.149921     -0.316346      0.474628
Ti       1.93094     13.69694      6.45020        -0.020317     -0.777162     -1.633828
Ti      13.65699      1.95128      6.30522        -0.143296      0.570719      0.674194
Ti      13.60060     13.63514      6.42285        -0.309405     -0.190642     -0.010410
Ti       1.83381      1.99052     10.36343         0.072384      0.052179      2.117969
Ti       1.94839     13.68188     10.57798        -0.744538      0.271513      0.032190
Ti      13.66883      1.89988     10.63470         0.057854      0.593353     -0.727182
Ti      13.57464     13.70723     10.57330         0.465605     -0.396657     -0.030514
Ti       1.94326      5.77525      2.18550         0.602746     -0.174518     -0.132151
Ti       1.84742      5.83008     14.82380         1.536790     -0.018886     -0.594189
Ti      13.63563      5.81315      2.13297         0.720490      0.189563      1.410345
Ti      13.55917      5.90180     14.73164        -0.102374     -0.889517     -0.937410
Ti       1.92238      5.89753      6.38548        -0.380196      0.018478      0.160806
Ti      13.57367      5.91364      6.38365         0.606573     -1.293481     -0.617278
Ti       1.93830      5.86446     10.47326         0.903114     -0.493627     -0.242652
Ti      13.61682      5.77025     10.57602        -0.004650      0.215492      0.183595
Ti       1.99406      9.66877      2.14922        -1.224749     -0.033945     -0.290086
Ti       1.93803      9.69844     14.65041         0.051594      0.692725     -0.373309
Ti      13.65825      9.78253      2.07969        -0.358819     -0.182700      1.533889
Ti      13.58447      9.85596     14.59216         0.551702     -0.358038     -0.359481
Ti       1.87779      9.76760      6.38114         0.536414     -0.320317      0.097418
Ti      13.57173      9.77987      6.45478         0.787792      0.527513      0.038920
Ti       1.81309      9.78616     10.59411         0.904996     -0.527356      0.451551
Ti      13.60879      9.76202     10.53505        -0.293268      0.357671     -0.438867
Ti       5.78761      1.87803      2.28219         0.633052      0.696340     -0.335680
Ti       5.78967      1.98029     14.73884         0.503801      0.071309     -0.219519
Ti       5.86827     13.66650      2.18222         0.300859     -0.606760      0.202710
Ti       5.85904     13.72567     14.72860        -0.201288     -1.409252     -0.505986
Ti       5.84212      1.98302      6.39796        -0.295568      0.410055      0.110259
Ti       5.87215     13.66565      6.41071         0.186408     -1.410115     -0.095759
Ti       5.78334      1.89570     10.48183         0.611359     -0.258088     -0.219412
Ti       5.73386     13.55271     10.50343         0.745123      1.286063      0.118013
Ti       5.88512      5.72946      2.34043        -0.474470      0.342088      1.636342
Ti       5.71300      5.85330     14.59338         0.517610     -0.905745     -0.539455
Ti       5.78976      5.86755      6.44044         0.609715     -0.852176     -1.880444
Ti       5.92573      5.74974     10.55457        -1.281875      0.194550     -0.215298
Ti       5.80087      9.72276      2.22543         0.779684      0.027981     -0.636493
Ti       5.84424      9.76576     14.77450        -0.122450      0.802441     -1.496663
Ti       5.79708      9.73641      6.52079         0.029132      0.807498     -0.366656
Ti       5.80414      9.72745     10.52160        -0.152256     -0.251123     -0.374678
Ti       9.77151      1.93869      2.19942        -0.914686     -0.249869      0.175816
Ti       9.70862      2.04167     14.66498         0.201151     -0.961882     -0.333963
Ti       9.72495     13.64842      2.20589         0.080532      0.079255      0.055518
Ti       9.73561     13.61071     14.66971        -0.365453      0.811923     -0.672656
Ti       9.79086      1.98173      6.28817        -0.678413     -0.692082      1.419549
Ti       9.77336     13.71163      6.43309        -0.266641     -0.345335     -0.761689
Ti       9.68010      1.91359     10.49122        -0.269108      0.691686     -0.648023
Ti       9.71975     13.69721     10.58063        -0.058420     -1.061674     -0.919225
Ti       9.84098      5.88434      2.28474        -0.866868      0.036301     -0.352909
Ti       9.65124      5.88568     14.58438         0.744603     -0.108723      0.618115
Ti       9.71970      5.83129      6.34203        -0.625774     -0.159473      0.607206
Ti       9.67663      5.84838     10.50115         0.208827     -0.178553     -0.231487
Ti       9.66433      9.81662      2.30791         0.843529     -0.786272     -1.370169
Ti       9.69134      9.68522     14.74048        -0.484263     -0.095202     -1.004656
Ti       9.71465      9.76037      6.45655        -0.535511      0.105483     -0.487806
Ti       9.69396      9.69862     10.58933        -0.628691      0.435358     -0.678806
O       1.99990      1.81281      0.39664        -0.542506      0.467574      1.047248
O       1.93537      1.80668     12.98160         0.160255      0.280714     -0.276997
O       2.02315     13.47580      0.40744        -0.134479      0.029239      0.488449
O       1.92584     13.66338     12.98314        -0.061935      0.148720      0.077823
O      13.56653      1.85322      0.36632         0.515448      0.476512      0.103526
O      13.60905      1.89246     12.92339        -0.078625      0.246422      1.135849
O      13.54679     13.65457      0.36388         0.250424     -0.365069      0.942617
O      13.76284     13.70857     12.88071        -0.243517     -0.209339      0.221370
O       1.94886      1.98988      4.60944        -0.310244     -0.459246     -0.435364
O       2.01626     13.76095      4.63576        -0.497798     -0.278839      0.171525
O      13.62915      2.05242      4.52542        -0.176199     -0.516633      0.114162
O      13.63367     13.66996      4.62433         0.007231      0.048737     -0.103461
O       1.83352      2.11041      8.64612         0.030221     -0.436215     -0.484145
O       1.88856     13.51428      8.78281         0.156960      0.306335     -0.194767
O      13.67034      1.95930      8.82360        -0.221926     -0.181931      0.014014
O      13.59842     13.79641      8.70257        -0.263855     -0.264270      1.338392
O       1.90172      5.75788      0.37814        -0.068987      0.074734      0.698600
O       1.84694      5.75969     13.06286         0.119899      0.159036     -0.501666
O      13.75250      5.92640      0.39425        -0.108161      0.010567     -1.086759
O      13.56221      5.80232     12.91742         0.358371      0.130042      0.342882
O       1.72006      6.01430      4.61956         0.605393     -0.255362     -0.134422
O      13.57651      5.77169      4.59282         0.144001      0.352591     -0.168851
O       1.93002      5.86811      8.69155        -0.450625      0.100441     -0.024974
O      13.62235      5.83980      8.81138        -0.096897      0.131631     -0.393580
O       1.90423      9.78732      0.32501         0.225113      0.126873      0.986917
O       2.03563      9.63930     12.85487        -0.283164      0.313688      0.616059
O      13.68476      9.77881      0.34344        -0.109305     -0.036130     -0.844519
O      13.33320      9.89898     12.77592         0.717512     -0.579697      1.043404
O       1.91325      9.65466      4.60525        -0.086314      0.078168      0.009995
O      13.69544      9.86653      4.65707        -0.213532     -0.564307     -0.176889
O       1.95874      9.81773      8.86424        -0.523100     -0.137839     -0.769331
O      13.53341      9.75912      8.75297         0.086227     -0.275259      0.328271
O       5.84170      1.99099      0.48470         0.231190     -0.198527      0.340298
O       5.84909      1.87462     12.99228        -0.353927     -0.324251     -1.268154
O       5.82098     13.77132      0.40551         0.327358     -0.425027      0.089353
O       5.90552     13.66756     12.95142        -0.184574      0.077579     -0.254379
O       5.84889      1.94053      4.64807        -0.354590     -0.326483     -0.710013
O       5.89293     13.63865      4.63012        -0.166207      0.126737      0.340770
O       5.81790      1.93770      8.71711        -0.101746      0.163134      0.157690
O       5.51323     13.55961      8.75391         0.590930      0.406155     -0.698336
O       6.02588      5.66049      0.64065        -0.002483      0.364281     -2.503501
O       5.72890      5.87570     12.81058        -0.147941     -0.189041      0.629172
O       5.72593      5.67379      4.62835         0.232718      0.982877      0.377693
O       5.87394      5.73947      8.76959         0.202640      0.366782      0.366525
O       5.83359      9.64444      0.43294        -0.164684     -0.069096     -0.109129
O       5.80870      9.82241     12.95550         0.078024     -0.366656      0.847595
O       5.86641      9.86535      4.73856        -0.386578     -0.626389     -0.747224
O       5.90797      9.66686      8.74444        -0.271901      0.222629      0.159861
O       9.68590      1.99448      0.44225        -0.064721     -0.159958     -0.128113
O       9.71420      2.04071     12.82073        -0.008396      0.053302      1.213711
O       9.70531     13.57251      0.39262         0.228830      0.054693      0.602259
O       9.55364     13.78163     12.85346         0.518447     -0.572633      0.745229
O       9.76397      1.96557      4.53638         0.306624      0.089386     -1.246096
O       9.81527     13.48655      4.64282        -0.261553      0.844685      0.237144
O       9.51226      1.86253      8.70778         0.833794      0.267487      0.412398
O       9.95091     13.63347      8.77937        -0.433420      0.323670      0.601006
O       9.73223      6.02860      0.53928        -0.178726      0.009981     -0.363063
O       9.84251      5.83919     12.82863        -0.304255     -0.269199      0.222195
O       9.76808      5.58656      4.58947         0.826376      0.912483     -0.568303
O       9.60943      5.82621      8.70081         0.368634      0.063822      0.389161
O       9.79861      9.76494      0.47331        -0.397420      0.073352      0.173946
O       9.76705      9.87328     12.90252         0.003261     -0.617534      1.041699
O       9.69342      9.75011      4.62101         0.224366      0.101594      0.689960
O       9.63583      9.78049      8.76912         0.404313     -0.076211      0.281760
O       3.83298      1.97316      2.53185         0.863207     -0.285331      0.176460
O       3.91489      1.90378     15.06800        -0.484151     -0.370274     -0.381879
O       3.94040     13.65930      2.60553        -0.327136     -0.456458     -0.446751
O       3.89121     13.64601     14.98672         0.829254     -0.227717      0.312793
O      15.59232      1.93029      2.52867         0.148126     -0.598984     -0.138166
O      15.59147      1.76271     15.02264        -0.235326      0.768061     -0.067015
O       0.02819     13.59714      2.60917         0.293949      0.203300     -0.501986
O      15.60424     13.73259     15.09413        -0.207135     -0.498977     -0.189888
O       3.86776      2.00295      6.67650        -0.647957     -0.282372      0.006051
O       3.84093     13.65771      6.67628         0.329328      0.025180      0.013034
O      15.57244      1.87408      6.66598        -0.552051      0.457790     -0.226266
O      15.46906     13.65184      6.72963         1.172631     -0.179936     -0.071533
O       3.89505      1.89657     10.88360        -0.923017      0.154839     -0.125296
O       3.83060     13.66509     10.87452        -0.358981     -0.101556      0.312760
O      15.54804      1.96657     10.91961         0.766768      0.330101     -0.247865
O       0.01110     13.58690     10.96893        -0.212017      0.328569     -0.623356
O       3.89911      5.63563      2.51288        -0.290223      0.705587      0.058317
O       3.87976      5.75130     15.14230         0.114410      0.763425     -0.444311
O       0.05927      5.83264      2.53143        -0.772654      0.671109     -0.207304
O       0.04424      5.87088     15.13672        -1.606714     -0.302998     -0.381246
O       3.83397      5.85718      6.65792        -0.463751      0.230272      0.138507
O      15.48099      5.87724      6.77486         0.468728     -0.173639     -0.161936
O       3.81835      5.71992     10.69028         0.790618      0.346152      0.915358
O       0.05457      5.91670     10.78964        -1.799461     -0.237165      0.609666
O       3.85117      9.77177      2.55859         1.138604      0.218673     -0.114966
O       3.89124      9.79392     14.97768         0.033056     -0.306522      0.397918
O       0.05035      9.69984      2.47684        -0.466469     -0.039451     -0.049897
O      15.51955      9.84238     14.78262         0.100698     -0.357223      0.406766
O       3.84521      9.71385      6.84219        -0.029440     -0.216914     -0.414598
O      15.53865      9.80029      6.84370         0.276290     -0.120557     -0.436941
O       3.91279      9.66010     10.80344        -0.658178      0.738443      0.333038
O      15.48087      9.65303     10.87775         0.631672      0.195965      0.011140
O       7.74916      1.81734      2.69440         0.695233      0.157676     -0.855520
O       7.77521      2.01946     15.00856         0.534148      0.029965      0.120185
O       7.84824     13.66103      2.58109        -0.284031     -0.038594     -0.375291
O       7.82369     13.62889     15.00935        -0.042526      0.738649      0.389289
O       7.72778      1.96227      6.64400         0.389534      0.237564     -0.061817
O       7.75266     13.62754      6.84040        -0.327737      0.165360     -0.416563
O       7.76014      1.91978     10.82031        -0.155158     -0.109758      0.359862
O       7.77633     13.72620     10.62763         0.004703     -0.354159      0.551465
O       7.86605      5.95119      2.71581        -0.003937     -0.402397     -0.519285
O       7.76401      5.85640     14.87386        -0.176533     -0.229597      0.238328
O       7.79345      5.79568      6.56285         0.145712      0.044648      0.284654
O       7.77145      5.88374     10.99981        -0.055234     -0.427870     -0.381949
O       7.71765      9.75771      2.55805         0.534987     -0.497537     -0.002376
O       7.80015      9.56460     14.94297        -0.189569      0.377066      0.435571
O       7.79677      9.77236      6.83729         0.112389     -0.127175     -0.480935
O       7.72491      9.80704     10.94579         0.432118     -0.305680      0.020626
O      11.70987      1.95986      2.40632        -0.180331      0.230972      0.351132
O      11.66429      2.05276     15.07846         0.280729     -0.040109     -0.326256
O      11.73925     13.57975      2.61137        -0.282276     -0.018073     -0.621680
O      11.64542     13.66602     14.91155        -0.244227     -0.357114     -0.076507
O      11.60031      1.89555      6.65929         1.064202      0.108354      0.126503
O      11.63164     13.67024      6.70031         0.470876      0.418999      0.115656
O      11.67538      1.96953     10.81333        -0.409788     -0.292649     -0.000125
O      11.72734     13.72838     11.02217        -0.097611     -0.100684     -0.603001
O      11.79899      5.69952      2.33409        -1.033494      0.109379      0.574706
O      11.70703      5.82631     15.09097         0.134975      0.128952     -0.085851
O      11.69793      5.89623      6.79182        -0.975539     -0.014933     -0.082156
O      11.67607      5.77952     10.75743        -0.402919      0.310656      0.014752
O      11.66544      9.88791      2.48612         1.048140     -0.524968      0.201671
O      11.67749      9.84191     15.05841         0.030504     -0.299482     -0.247369
O      11.68505      9.67195      6.73281        -0.998861     -0.019747     -0.130771
O      11.55977      9.75859     10.82375         0.935737     -0.064552      0.046750
O       1.89981      3.87430      2.60044        -0.225073      0.078468     -0.397470
O       1.98413      3.80993     15.10170        -0.876136      0.064456     -0.529485
O       1.99034     15.55810      2.49722        -0.281682     -0.703591      0.246041
O       2.02693     15.52890     15.17245        -0.372936      0.576886     -0.519158
O      13.83453      3.85549      2.39284        -0.643998      0.328741     -0.070814
O      13.77506      3.91549     14.99453         0.011421     -0.265180      0.285039
O      13.62502     15.53643      2.41123         0.126398      0.578975      0.667736
O      13.60115     15.57009     15.05926        -0.143908      0.493533     -0.213402
O       1.85683      3.94702      6.70073        -0.091432     -0.188688     -0.544028
O       1.83205     15.54187      6.68484         0.268035      0.864915      0.378740
O      13.46523      3.87982      6.72675         0.578256     -0.297773     -0.104181
O      13.56239      0.03837      6.71782         0.069151     -0.070091     -0.340590
O       1.82337      3.90370     10.88510         0.201530     -0.513295      0.002459
O       1.73970      0.05167     10.67210         0.744113     -0.676660      0.093493
O      13.62321      3.88034     10.95595         0.355681      0.694437     -0.275392
O      13.73816      0.01009     10.84919        -0.384562     -0.732492     -0.057784
O       2.19588      7.78941      2.31847        -0.714843     -0.322424      0.160847
O       1.87029      7.81664     15.10361         0.451811     -0.237618     -0.238447
O      13.57071      7.78344      2.44729         0.186752      0.495907      0.264066
O      13.63354      7.81986     14.76902        -0.080848      0.472470      0.797968
O       1.85744      7.83420      6.79341        -0.122345     -0.239683     -0.014318
O      13.61527      7.79567      6.61973        -0.025873      0.404387      0.323613
O       1.95628      7.77491     10.92594        -0.289423      0.056684     -0.321067
O      13.55426      7.79480     10.91045        -0.029732     -0.025616     -0.075804
O       2.02484     11.67269      2.63428        -0.305540      0.120364     -0.575996
O       1.92586     11.66233     14.97020        -0.000687     -0.004473      0.189521
O      13.74520     11.67218      2.49887        -0.027968     -0.059034     -0.177824
O      13.66246     11.77327     14.91393        -0.231307     -0.922801      0.079946
O       1.95422     11.67735      6.63645        -0.475249      0.306495      0.249161
O      13.48993     11.72305      6.76066         0.296780      0.037560     -0.086144
O       1.88210     11.67624     10.92397         0.156621      0.097543      0.092498
O      13.69308     11.73950     10.85177        -0.603001     -0.153399     -0.241433
O       5.94303      3.85221      2.71098        -0.292478     -0.899505     -0.735630
O       5.73798      3.85099     14.80959         0.376969      1.246856      0.699260
O       5.83845     15.52567      2.54447        -0.094599      0.953930      0.180445
O       5.92322     15.59847     15.05744        -0.258863      0.233662     -0.169148
O       5.77757      3.98397      6.75412         0.348254     -1.587221     -0.092839
O       5.80342      0.05470      6.79193        -0.267817     -1.238685     -0.646894
O       5.83887      3.82012     10.86613         0.077447      0.477800      0.296499
O       5.79209     15.50539     10.79727        -0.097899      0.902530      0.339701
O       5.81497      7.73321      2.52080        -0.200538      0.736428      0.132409
O       5.79364      7.71081     15.02711        -0.109299      0.361951      0.106265
O       5.84937      7.70992      6.78627        -0.198919      1.122718     -0.224214
O       5.75609      7.80173     10.89725         0.671097     -0.584989     -0.106453
O       5.89695     11.67777      2.31820        -0.452747      0.221183      0.679189
O       5.99686     11.73902     15.05550        -0.572986     -0.798672      0.151537
O       5.77680     11.65629      6.74161        -0.054449      0.901610      0.301007
O       5.80189     11.70568     10.80678        -0.169150     -0.214278      0.261312
O       9.65376      3.91856      2.37284         0.385817     -0.547059      0.311706
O       9.75598      3.97223     15.16818        -0.179572     -0.064666     -0.660294
O       9.83398     15.52773      2.51027        -0.112331      0.420719      0.137862
O       9.80566      0.12952     14.95906        -0.440898     -0.715604     -0.011870
O       9.72900      3.86752      6.71305         0.350556      0.256961      0.003786
O       9.58881      0.05904      6.58799         0.224279     -0.949226     -0.045777
O       9.65196      3.87409     10.76779         0.041692      0.293771      0.180706
O       9.74347      0.01203     10.87086         0.082451      0.018188     -0.088199
O       9.81584      7.86781      2.72258         0.258810     -0.746286     -0.193449
O       9.74386      7.75386     14.93222         0.538819      0.473562      0.163447
O       9.58925      7.77099      6.60497         0.845762      0.169473     -0.052190
O       9.62160      7.74465     10.74719         0.432324      0.727867      0.431672
O       9.68327     11.63508      2.68880         0.247238      1.168302     -0.879111
O       9.57946     11.69870     15.02953         0.862409     -0.139416     -0.332107
O       9.67068     11.76263      6.78781         0.508562     -1.076287     -0.019011
O       9.69771     11.72321     10.86399         0.111235      0.429235     -0.018612
