  # total energy = -7882.96823627 
CRSYTAL
PRIMVEC
    15.6080000000000005    0.0000000000000000    0.0000000000000000
     0.0000000000000000   15.6080000000000005    0.0000000000000000
     0.0000000000000000    0.0000000000000000   16.6239999999999988
PRESSURE
-0.953807 -1.15592 -0.686913 -0.235621 0.418481 0.034521
PRIMCOORD
320 1
Pb       3.96197      3.82552      4.15851        -0.338197      0.125263     -0.462880
Pb       3.86157      3.85892      0.03655        -0.158451     -0.388391     -0.323841
Pb       3.92021     15.60321      4.14710         0.106110      0.035831     -0.241733
Pb       3.84149     15.53144     16.60040         0.189472      0.394271     -0.363537
Pb      15.47502      3.84503      4.09712         0.435960     -0.219244      0.103106
Pb      15.58124      3.83893     16.58216        -0.739497      0.076691     -0.233044
Pb       0.03897     15.58060      4.09606        -0.315319      0.566297      0.599600
Pb       0.06687     15.59952      0.00770        -0.310069      0.283383     -0.386559
Pb       3.90184      3.90050      8.30567        -0.139385      0.257957     -0.065738
Pb       3.96908      0.14588      8.36414        -0.213631     -0.481675      0.024041
Pb      15.56254      3.93364      8.23091        -0.097776     -0.302577     -0.015858
Pb       0.07234      0.00404      8.27116        -0.182859      0.062009     -0.149266
Pb       3.72739      4.01138     12.57028         0.275197     -0.445467      0.021760
Pb       3.80998     15.46494     12.44649         0.266562      0.335567      0.211981
Pb      15.56540      3.83800     12.39069        -0.508640      0.294164      0.631855
Pb       0.04260     15.59750     12.44883        -0.388799     -0.152767     -0.208921
Pb       3.75587      7.84679      4.06137         0.172572     -0.550354      0.082932
Pb       3.79037      7.70469     16.56046         0.263219      0.241875      0.642359
Pb       0.00406      7.88553      4.01810         0.082050     -0.628109      0.307354
Pb      15.58107      7.79019     16.59796        -0.151094     -0.410483      0.293687
Pb       3.97024      7.79776      8.31301        -0.115719      0.147544     -0.001581
Pb      15.48186      7.78925      8.44228        -0.089951      0.156831     -0.736765
Pb       3.84822      7.85273     12.54165        -0.010448      0.449273     -0.772333
Pb      15.47483      7.73304     12.46857         0.141341      0.089998     -0.364790
Pb       3.91630     11.71101      4.14099         0.125624      0.324002     -0.537422
Pb       3.87045     11.67907     16.53000         0.349718      0.028687     -0.010983
Pb      15.60196     11.81211      4.11071        -0.160810      0.140075      0.511285
Pb       0.03865     11.80513      0.08098        -0.262789     -0.040205     -0.424847
Pb       3.86307     11.78269      8.30838        -0.181299     -0.708385     -0.020659
Pb      15.45474     11.69120      8.20016         0.964865     -0.102113     -0.068633
Pb       3.80696     11.80233     12.44140         0.282117     -0.716680     -0.454455
Pb      15.57732     11.53748     12.39504         0.245136      0.054157     -0.014675
Pb       7.72161      3.78431      4.10832         0.463565      0.187592     -0.140938
Pb       7.62232      3.75537     16.57315         1.035423      0.403166      0.467857
Pb       7.71015     15.53979      4.09983         0.347060      0.017389      0.000450
Pb       7.77356     15.54290      0.02188        -0.365960      0.227879     -0.244268
Pb       7.75265      3.87566      8.43141         0.234791      0.025570      0.104802
Pb       7.86857     15.54109      8.42474        -0.325404      0.195531     -0.117796
Pb       7.79601      3.87057     12.51739        -0.028628     -0.322101     -0.731245
Pb       7.89930      0.06034     12.52979        -0.460506     -0.257860     -0.250881
Pb       7.70646      7.79354      3.99657         0.528674      0.301635      0.297909
Pb       7.78669      7.84365     16.53361         0.420104     -0.464092      0.210129
Pb       7.92992      7.84844      8.34499        -0.514814     -0.076283     -0.178275
Pb       7.92782      7.68025     12.50113        -0.641537      0.380415     -0.639671
Pb       7.77846     11.78003      4.04179         0.327288     -0.391540      0.022143
Pb       7.77159     11.62315     16.54332         0.172054      0.216615     -0.299714
Pb       7.65868     11.67816      8.30158         0.460435     -0.062062      0.193250
Pb       7.79185     11.58937     12.48637        -0.271003      0.594125     -0.102257
Pb      11.75056      3.96181      4.28015        -0.468438     -0.488099     -0.285309
Pb      11.76490      3.97833      0.05604         0.194138     -0.500108     -0.423404
Pb      11.65064      0.12714      4.19917         0.216425     -0.165442      0.107769
Pb      11.65176     15.56905     16.58359         0.846409      0.589743      0.128360
Pb      11.63462      3.98425      8.33667         0.357404     -0.364635     -0.016684
Pb      11.48650     15.52500      8.23748         0.759503      0.728859      0.190103
Pb      11.71432      3.78055     12.45490         0.290305      0.253414     -0.506371
Pb      11.70326     15.48653     12.39916         0.454920      0.468508     -0.217777
Pb      11.76324      7.63599      3.97672        -0.770122      0.499953      0.707428
Pb      11.66179      7.76940     16.62003         0.112601      0.015554     -0.023866
Pb      11.64947      7.84151      8.13762         0.988284     -0.428462      0.733173
Pb      11.58624      7.81988     12.51841         0.736702     -0.348250     -0.831466
Pb      11.68760     11.67195      4.31068        -0.331148      0.480282     -0.402844
Pb      11.90165     11.74386     16.58597        -0.624016     -0.231779      0.044545
Pb      11.74613     11.75085      8.34266        -0.491808     -0.114314     -0.915623
Pb      11.60525     11.66672     12.33347         0.304593      0.036756      0.640511
Ti       1.93630      1.95696      2.13844         0.218818      0.085490      0.244353
Ti       1.89301      1.93842     14.68131         0.285669     -0.226560      0.812814
Ti       1.92825     13.71571      2.21734         1.423494      0.014420     -0.812827
Ti       1.93142     13.58905     14.65420        -0.075190      0.881035      0.696867
Ti      13.64621      1.91624      2.21176        -0.355160     -0.021319     -0.271487
Ti      13.61313      1.82738     14.63394         0.069500      0.767243      0.648440
Ti      13.65284     13.74458      2.23142        -0.094467     -0.134289      1.623786
Ti      13.66464     13.57959     14.62240         0.306218      0.837811      0.009280
Ti       1.97256      1.83691      6.32060        -0.596486      1.447400     -0.507390
Ti       2.03194     13.63200      6.40360        -1.139505     -0.307465     -0.611904
Ti      13.61222      1.91522      6.41842        -0.492529     -0.077441     -0.281388
Ti      13.62088     13.73463      6.40930         0.175709     -0.096821     -0.607061
Ti       1.97201      1.95118     10.55491        -0.311707     -1.178039     -0.088969
Ti       1.90979     13.62449     10.48284        -0.330543     -0.538876     -0.438164
Ti      13.74094      1.87938     10.45257        -1.274130      0.285990      0.201666
Ti      13.68214     13.54324     10.42834         0.222611      1.513253      2.444972
Ti       1.92540      5.79936      2.15851         0.369322     -0.131939      0.014553
Ti       2.03002      5.81695     14.67571        -1.904872     -0.823270     -0.194011
Ti      13.60964      5.77955      2.26997         0.776046     -1.037268     -1.378707
Ti      13.69288      5.80825     14.69226        -0.041664     -1.011294      0.102862
Ti       2.00646      5.72372      6.35218        -0.526195      0.628570      0.985023
Ti      13.70704      5.81190      6.33713        -1.023545      0.349135      0.607273
Ti       1.95822      5.70210     10.48557        -0.600356      1.724193      1.177574
Ti      13.59945      5.87214     10.54534        -0.276913     -0.486639     -0.517139
Ti       1.87374      9.77473      2.17541         0.753358     -0.307768     -1.011644
Ti       1.86390      9.67198     14.74397         0.597239      0.604782     -0.808498
Ti      13.63185      9.86034      2.23577        -0.640200     -0.132618     -0.243697
Ti      13.69649      9.69611     14.74840        -0.624551      0.342886     -0.853625
Ti       1.98327      9.65202      6.44582        -0.248360     -0.080417      0.463204
Ti      13.65753      9.77816      6.27288         0.188934     -0.704934      0.208362
Ti       1.92922      9.62089     10.44664         0.371783      0.544925      1.360338
Ti      13.58624      9.77111     10.51374         0.203862     -1.822365     -0.015444
Ti       5.82344      1.94194      2.17426        -0.318755     -0.515991     -0.812257
Ti       5.83715      1.89579     14.61685        -0.965011     -0.761764      0.557428
Ti       5.87758     13.66051      2.12969        -0.898537     -0.285553     -0.269938
Ti       5.84587     13.61880     14.69903         0.385716      0.688465     -0.833874
Ti       5.83070      1.97271      6.47636        -0.107810     -0.878365     -1.488267
Ti       5.83203     13.64830      6.40138        -0.001988      0.750300     -1.522398
Ti       5.77741      1.96750     10.59716         0.822147     -0.041517      0.122515
Ti       5.84894     13.74323     10.57090         0.367840     -0.644875      1.847684
Ti       5.90649      5.83769      2.13698        -1.131839     -0.078594     -0.609295
Ti       5.89443      5.82161     14.72598         0.280850     -0.539223      0.542901
Ti       5.93821      5.84637      6.36234        -0.686676      0.694665     -0.241800
Ti       5.78011      5.90699     10.51138         0.124377      0.355193     -0.872836
Ti       5.77690      9.70757      2.16420         0.662018      0.659970      0.641977
Ti       5.88866      9.65326     14.66398        -0.821115      1.305719     -1.234442
Ti       5.89841      9.74742      6.30351        -0.677870     -0.636513      0.212835
Ti       5.75973      9.84131     10.51201        -0.296912     -1.107554      0.867153
Ti       9.73200      1.93635      2.23126         0.509773      0.170491      0.573561
Ti       9.73172      1.89520     14.67836         1.155075      0.728561     -0.773341
Ti       9.91219     13.64662      2.13500        -0.317609     -0.214078      2.708161
Ti       9.78853     13.66662     14.67980        -0.532864     -1.073159     -0.736914
Ti       9.61433      1.97217      6.41242         1.900683     -0.307687      0.029196
Ti       9.63664     13.63384      6.40760         1.801747     -0.281226     -0.978194
Ti       9.75624      1.94115     10.53517         0.368177      0.700910      0.703762
Ti       9.72940     13.63040     10.59136        -0.580292      0.039907     -0.306213
Ti       9.66442      5.86365      2.15066         0.447475     -1.145025      0.075920
Ti       9.78218      5.82133     14.62457         0.230756     -0.972388      1.310297
Ti       9.69729      5.82875      6.40258         1.223601     -0.192443     -0.876384
Ti       9.71705      5.85502     10.47122         0.995276     -0.741453      0.602533
Ti       9.74497      9.77122      2.17639         0.177317      0.218515      0.974143
Ti       9.86032      9.76021     14.61509        -0.400292      0.828814      1.705221
Ti       9.72672      9.75632      6.33510         0.032229      0.105608     -0.919965
Ti       9.66700      9.71818     10.48794         0.344427     -0.315225     -0.375927
O       2.01645      1.91356      0.33478        -0.433506      0.311890      0.654250
O       1.84216      1.89747     12.93005         0.271243     -0.288808     -1.325988
O       2.05161     13.70345      0.36956        -0.504036     -0.186771      0.914828
O       1.97928     13.68631     12.87694        -0.306129     -0.280473     -0.284016
O      13.64591      1.87804      0.44860         0.141769     -0.052954     -0.158894
O      13.69229      1.89564     12.84097        -0.077699     -0.139773     -0.002847
O      13.72199     13.60745      0.51743        -0.125766     -0.015288     -1.789576
O      13.73831     13.54305     12.85832        -0.307638      0.178943      0.374774
O       2.14357      1.94477      4.53251        -0.331468      0.030241      0.408805
O       1.97154     13.67701      4.55430         0.181315     -0.289113      0.519321
O      13.56017      1.93743      4.59776         0.165355     -0.024914      0.277616
O      13.73688     13.69214      4.61146        -0.202145     -0.516242      0.063773
O       1.96312      1.88350      8.76630         0.190354      0.137877      0.162168
O       1.87672     13.72757      8.70051         0.155836     -0.339570     -0.182029
O      13.68357      1.99005      8.68033         0.338219     -0.259889      0.400192
O      13.61551     13.56959      8.71758         0.021609     -0.275270     -1.608084
O       2.03515      5.75932      0.34691        -0.383841      0.233371      0.684365
O       1.91065      5.82865     12.87765         0.674938      0.055509      0.037935
O      13.69102      5.57533      0.45263        -0.233437      0.853643      0.503136
O      13.67789      5.84482     12.90357        -0.011693      0.123496      0.201734
O       2.07113      5.88552      4.63477        -0.218523      0.022021     -1.409794
O      13.56996      5.71353      4.53362         0.228433      0.179649     -0.069625
O       1.94884      5.62566      8.76946        -0.103367     -0.031558     -1.336251
O      13.57868      5.83540      8.72053         0.543470      0.031951      0.082164
O       1.84030      9.62451      0.35308         0.363326      0.443154      0.992834
O       1.73824      9.62556     12.95786         0.380730      0.155565      0.242785
O      13.67156      9.82531      0.43039        -0.125401     -0.281555      0.113997
O      13.79625      9.76313     12.94307        -0.333269     -0.347490      0.071803
O       2.01468      9.60455      4.65644        -0.132093      0.074047     -0.804863
O      13.63637      9.87048      4.47359         0.489585     -0.395334     -0.052379
O       1.92657      9.67661      8.71155        -0.045882      0.414893     -0.693378
O      13.64528      9.56659      8.74907         0.102601      0.999544     -0.172924
O       6.02221      1.89989      0.33246        -0.458112      0.208183      0.947152
O       5.92900      1.98361     12.82397        -0.154868     -0.142032      0.197096
O       5.77623     13.62392      0.31532         0.482565      0.051117      0.666496
O       5.87058     13.65747     12.90288        -0.272587     -0.207226     -0.107829
O       5.73154      1.90399      4.58041         0.265708      0.390373      1.423580
O       5.76408     13.73832      4.55682         0.244239     -0.365323      1.055115
O       5.68624      1.75411      8.75740         0.525481      0.827512      0.119329
O       6.01508     13.72731      8.85396        -0.073009     -0.469852     -2.106708
O       5.89937      5.75467      0.31463         0.092062     -0.025895      0.017042
O       5.82761      5.77158     12.97565         0.019926      0.048865     -0.870166
O       6.01772      5.80617      4.56931        -0.473319     -0.011398      0.255484
O       5.77811      5.95682      8.69897         0.284661     -0.311334      0.670064
O       5.81521      9.86822      0.41922         0.081647     -0.420502     -1.093986
O       5.82235      9.63888     12.86744         0.289939      0.322078      1.135853
O       5.98105      9.71456      4.48691        -0.512312     -0.098948      0.824623
O       5.74071      9.78061      8.74461         0.509157      0.194307     -0.305018
O       9.68607      1.72810      0.47460        -0.033975      0.302045     -0.355603
O       9.70021      1.87592     12.80727         0.326419      0.373703      1.469182
O       9.87270     13.58829      0.42000        -0.261375      0.229926     -1.244745
O       9.72177     13.51211     12.86741         0.644992      0.567585      0.111168
O       9.64819      1.88138      4.61958         0.041745      0.278542      0.243516
O       9.77026     13.56149      4.64068        -0.158466      0.370503      0.091028
O       9.76381      1.95358      8.78737        -0.474348     -0.288646     -0.822998
O       9.70487     13.62601      8.76856        -0.253856     -0.185441      0.415622
O       9.65646      5.68378      0.39543         0.629858      0.693684      0.160436
O       9.70878      5.84565     12.83070         0.076048      0.252931      0.468944
O       9.83132      5.79840      4.58545        -0.423620      0.024542      0.527869
O       9.89316      5.86927      8.70345        -0.743471      0.134831     -0.080718
O       9.97036      9.77995      0.44513        -0.748566      0.082158     -0.881703
O       9.75204      9.70329     12.87385        -0.029904     -0.199967     -0.920155
O       9.51165      9.61139      4.52687         0.775365      0.305363      1.249457
O       9.71938      9.72644      8.68763         0.028378     -0.005429      0.347006
O       3.87533      1.93474      2.38432         0.348278      0.572503      0.265808
O       3.90127      1.97079     15.06689         0.888243     -0.074414     -0.715245
O       3.93844     13.55993      2.41896        -0.862018      0.163182      0.546096
O       3.89866     13.62914     14.84228        -0.905325     -0.283920      0.520040
O       0.02817      1.90704      2.52216         0.011246      0.063859      0.120666
O      15.57962      1.88949     15.02310         0.157265     -0.075340     -0.016475
O       0.05995     13.86559      2.48630        -0.339191     -1.197011      0.032543
O      15.60350     13.79725     15.09758         0.239638     -0.881604     -0.516245
O       3.90568      1.99966      6.67384         0.373289     -0.016283      0.342952
O       3.91915     13.65906      6.71959        -0.156253     -0.242384      0.102185
O      15.57524      1.74592      6.55538         0.354812      0.425737      0.356887
O      15.57534     13.65556      6.62980         0.550896     -0.058247      0.507131
O       3.87975      1.81703     10.96378         0.093987      0.825278     -0.346307
O       3.90253     13.54233     10.67303        -0.017662      0.461250      0.713558
O       0.01525      1.86902     10.77283         0.354643     -0.072901      0.230350
O      15.56367     13.56543     10.75756         0.632815     -0.019494      0.049619
O       3.98803      5.86545      2.41726        -0.600773     -0.182697      0.315128
O       3.87202      5.73574     15.09733         1.494228      0.325684     -0.759773
O       0.02917      5.87355      2.54619         0.244263     -0.154660      0.054924
O      15.58818      5.68949     15.02981         0.646859      1.034473     -0.094588
O       3.86930      5.73364      6.64533         0.952050     -0.139120      0.230188
O      15.57237      5.70408      6.57724         0.090126      0.464466      0.332600
O       3.89582      5.63649     10.75877        -0.041960     -0.358206      0.516516
O       0.01566      5.86140     10.78396         0.540194      0.401900      0.076191
O       3.84938      9.70747      2.51486         0.168286      0.330622     -0.078339
O       3.81887      9.76411     14.91670         0.711051     -0.159986      0.270820
O       0.01365      9.65478      2.39379        -0.604742     -0.041588      0.724389
O      15.52788      9.61371     15.04907         1.096584     -0.125370      0.288343
O       3.94534      9.76516      6.79443        -0.072461      0.041964     -0.753400
O      15.58805      9.73072      6.61109         0.099122      0.288857      0.229681
O       3.87582      9.80673     10.88960        -0.323033      0.237575      0.148382
O      15.60377      9.60657     10.81863        -0.110929      0.277931     -0.183089
O       7.64825      1.81730      2.57624         1.486652     -0.135685      0.076980
O       7.86848      1.68776     14.94947        -0.074125      0.419401     -0.142497
O       7.79630     13.70757      2.50663         0.001178     -0.090014     -0.385878
O       7.85285     13.75834     14.94910        -0.010479     -0.189649      0.444843
O       7.79864      1.88484      6.79137        -1.382770      0.372199      0.095258
O       7.82276     13.68522      6.66346        -1.763877     -0.416662      0.361766
O       7.82619      1.93117     10.86399        -0.386999     -0.233880     -0.226370
O       7.85475     13.69274     11.03584        -0.122152     -0.277648     -0.849271
O       7.81524      5.80980      2.38252        -0.166313      0.401965      0.591476
O       7.88181      5.82971     14.99903        -0.879428      0.448960     -0.435097
O       7.80894      5.89781      6.68236         0.090120     -0.107258      0.386425
O       7.80350      5.96786     10.73972        -0.643682      0.038627      0.281771
O       7.80894      9.70004      2.44174        -0.021422      0.239075     -0.525505
O       7.85246      9.71547     14.92649        -0.670806     -0.065936      0.450621
O       7.76458      9.87830      6.80413         0.121290     -1.018533     -0.404298
O       7.76226      9.62348     10.79419         0.146430     -0.074529      0.058587
O      11.72595      2.00780      2.51503        -1.166910     -0.167766      0.156179
O      11.75290      1.87675     15.04539        -0.810611      0.484318     -0.270807
O      11.81576     13.61391      2.54640        -1.394931     -0.229401     -0.053829
O      11.70026     13.53052     14.98322         1.033092     -0.151511     -0.089536
O      11.65033      1.82842      6.80460        -0.337431      0.459514     -0.631537
O      11.64265     13.63761      6.73106         0.186131     -0.445568      0.134833
O      11.73155      2.08317     10.81848         0.417825     -0.607632      0.133002
O      11.67927     13.58922     10.81648         0.047653     -0.315427      0.117327
O      11.70213      5.58362      2.51849        -0.541668      0.706903     -0.254080
O      11.72572      5.82250     15.09181        -0.482986     -0.136350     -0.375903
O      11.71520      5.82135      6.70302         0.099217     -0.109041     -0.338309
O      11.71607      5.76005     10.90305        -0.124045      0.257787      0.049844
O      11.74480      9.67823      2.48991         0.081877      0.406561      0.417446
O      11.73479      9.80095     14.90505        -0.025445     -0.107272      0.200488
O      11.74038      9.80513      6.53359        -0.809641     -0.271968      0.173184
O      11.68943      9.71455     10.87644        -0.168267      0.224203     -0.042168
O       1.95370      3.91821      2.48934         0.127737     -0.209992      0.077498
O       2.02760      3.87159     14.81695        -0.132715      0.236958      0.622335
O       1.91391      0.05147      2.51941         0.773627     -0.719905     -0.248794
O       1.93720      0.03032     14.99699         0.358092     -1.108005     -0.086862
O      13.75668      3.81415      2.46393         0.064226      0.409364      0.768617
O      13.69810      3.80660     15.03441        -0.444237      0.361681     -0.298492
O      13.58633     15.59856      2.58893         0.332045      0.331148     -0.009592
O      13.56386     15.54121     14.95465         0.244181     -0.443070     -0.032041
O       1.86688      3.78827      6.71302         0.277738      0.379672     -0.183807
O       1.99141      0.00622      6.60494         0.166423     -0.928078      0.341607
O      13.60050      3.82114      6.56575         0.246095      0.750528      0.455547
O      13.50409     15.55466      6.69096         0.466711      0.152525      0.321194
O       1.89132      3.80506     10.97583         0.424958      0.297827     -0.498665
O       1.97440     15.54923     10.82916        -0.245508      0.016348      0.295386
O      13.82782      3.93891     10.84114        -0.606235     -0.849879     -0.107930
O      13.71658     15.50278     10.74911        -0.460077      0.662870      0.159247
O       1.98091      7.77836      2.44808        -0.127202      0.122008      0.348764
O       2.03133      7.73231     15.01359        -0.645666      0.010195      0.009316
O      13.59375      7.62429      2.50782         0.293634      1.511583     -0.105307
O      13.57001      7.72894     15.06435         0.433410      0.480061      0.058041
O       1.94213      7.76517      6.85354         0.008353     -0.419278     -0.577212
O      13.62990      7.82732      6.67138         0.348275     -0.605544     -0.602941
O       2.21248      7.77244     10.71352        -0.709661     -0.831605      0.172974
O      13.59481      7.79265     10.81219         0.268316     -0.032447      0.618112
O       1.84074     11.71036      2.50420         0.097778     -0.239799     -0.107520
O       1.83183     11.66019     15.05415        -0.026815      0.488360     -0.409143
O      13.72893     11.73981      2.51868         0.363297     -0.666970      0.040101
O      13.78543     11.67714     15.00425        -0.042597      0.143663      0.297943
O       1.99642     11.69136      6.68939        -0.126947      0.326305      0.047452
O      13.62304     11.67894      6.75248        -0.103586      0.053043     -0.184052
O       1.98208     11.66506     10.83979        -0.454703      0.253109     -0.026978
O      13.63837     11.64360     10.83661         0.023754     -0.074284     -0.357415
O       5.94557      3.90669      2.48630        -0.397664     -0.646499     -0.007834
O       6.01277      3.79828     14.89063        -0.269170      0.680114      0.138503
O       5.69629      0.00028      2.46194         0.515534     -0.515014     -0.061246
O       5.79713     15.56160     14.97476         0.072845      0.523273      0.029663
O       5.95998      3.91182      6.79860        -0.358216     -0.585331     -0.261302
O       5.75733     15.56706      6.72098         0.470559      0.508333     -0.061666
O       6.01710      3.85266     10.62591        -0.481879      0.192622      0.476279
O       5.83451     15.58452     10.84075         0.029278      0.257186      0.296272
O       5.91159      7.76080      2.29340        -0.040702      0.473570      0.500574
O       5.87777      7.78764     14.93098        -0.159745     -0.502135      0.483526
O       5.83968      7.80962      6.69051         0.266777      0.025224     -0.433088
O       5.52023      7.78596     10.89455         1.104623     -0.763773     -0.390695
O       5.83633     11.68428      2.51172         0.133656      0.141650      0.059731
O       5.85188     11.72225     15.01397         0.371933     -1.035699     -0.130066
O       5.84642     11.72238      6.59869        -0.015509      0.097447      0.373979
O       5.83293     11.67049     10.90948         0.559932      0.560069     -0.154126
O       9.54390      3.79765      2.52800         0.312300     -0.007102     -0.108090
O       9.79925      3.85527     14.92985        -0.329079     -0.416960     -0.313633
O       9.86809     15.52963      2.63245        -0.550887      0.241817     -0.472473
O      10.05398     15.56546     14.92915        -1.224588     -0.096860     -0.318406
O       9.75598      3.90328      6.83563        -0.522656     -0.267326     -0.577018
O       9.64288     15.59938      6.70771         0.257867     -0.185899      0.259210
O       9.76694      3.96088     10.71764        -0.561225     -0.515182      0.577574
O       9.83905      0.02799     10.83071        -0.130026     -1.197645     -0.004074
O       9.79531      7.78337      2.40608         0.069664     -0.669840     -0.023788
O       9.84893      7.79654     15.02905        -0.263478     -0.094242     -0.304445
O       9.83178      7.74097      6.76983        -1.122664      0.900323     -0.719263
O       9.80705      7.77254     10.82897        -0.099011      0.411816      0.332945
O       9.77594     11.72976      2.62813         0.024518     -0.411739     -0.454820
O       9.68455     11.70343     14.94437         0.107740     -0.677379      0.112388
O       9.78736     11.62101      6.53862        -0.196535      0.386159      0.628079
O       9.69053     11.58447     10.81682         0.076392      0.952268      0.102478
