  # total energy = -7880.30348301 
CRSYTAL
PRIMVEC
    15.6080000000000005    0.0000000000000000    0.0000000000000000
     0.0000000000000000   15.6080000000000005    0.0000000000000000
     0.0000000000000000    0.0000000000000000   16.6239999999999988
PRESSURE
-0.02418 -0.362482 -0.254827 0.015574 -0.220876 -0.062429
PRIMCOORD
320 1
Pb       3.97838      4.07046      4.22664        -0.131447     -0.399081     -0.080798
Pb       3.96604      4.02525     16.48787         0.099446     -0.514095      0.754837
Pb       3.90277      0.08796      4.00615        -0.125294     -0.530238      0.528163
Pb       3.85105      0.03553     16.47375         0.253504     -0.385659      1.037164
Pb       0.16530      3.84652      4.21188        -0.592347      0.230888     -0.339195
Pb      15.58154      3.78510      0.00464        -0.065960      0.528019      0.289946
Pb      15.39839      0.04222      4.12292         0.505353     -0.538312     -0.533286
Pb      15.47810      0.01219     16.55839         0.397123     -0.281767      0.726823
Pb       3.79647      3.81667      8.23023        -0.043641      0.350838      0.200022
Pb       3.88840     15.49995      8.05480         0.053366      0.348781      0.598359
Pb      15.54289      3.86220      8.39106        -0.196222      0.368334     -0.107758
Pb      15.57484     15.54086      8.23888        -0.077733     -0.071267      0.404894
Pb       3.77136      3.85957     12.56106         0.084961      0.018503     -0.544686
Pb       3.92592     15.53550     12.51733         0.102119      0.127628     -0.727936
Pb       0.00628      4.01554     12.62177        -0.264408     -0.499680     -0.226734
Pb       0.15795     15.55467     12.45259        -0.870191      0.077948      0.161434
Pb       3.88472      7.87181      4.07759        -0.071516      0.011133      0.368414
Pb       3.99977      7.76352     16.60230         0.036688      0.382149      0.052364
Pb       0.10400      7.79330      4.21575        -0.428328      0.501310     -0.177516
Pb      15.51144      7.75330     16.59957        -0.178218      0.211578     -0.099004
Pb       3.77509      7.72889      8.29722         0.495939     -0.119768     -0.189723
Pb      15.36578      7.67322      8.47421         0.150338     -0.150294     -0.569556
Pb       4.00869      7.79063     12.32056        -0.294275      0.136077      0.521193
Pb      15.47246      7.79328     12.52561        -0.000339     -0.050558     -0.001943
Pb       3.80180     11.69822      4.01236         0.197968     -0.183509      0.721595
Pb       3.95153     11.63460     16.60823        -0.421834      0.011887     -0.254071
Pb      15.56908     11.64405      4.10784        -0.149185      0.151907      0.341706
Pb      15.49067     11.72920     16.51934         0.383243      0.273495     -0.088620
Pb       3.86758     11.83753      8.22529        -0.267131     -0.252755     -0.111072
Pb       0.15845     11.64909      8.16897        -0.547492      0.261424      0.740216
Pb       4.02550     11.50177     12.24242        -0.236642      0.301265      0.575654
Pb       0.17892     11.67221     12.43548        -0.448912      0.368961      0.039307
Pb       7.84380      3.71514      4.13289        -0.088003      0.196644      0.254421
Pb       8.00575      4.02869     16.59153        -1.110967     -0.271484      0.436648
Pb       7.85195     15.46305      4.13036        -0.554389      0.038560      0.439375
Pb       7.82956      0.13564     16.54515        -0.301219     -0.261223     -0.079978
Pb       7.58550      3.79381      8.47386         0.706818      0.437487     -0.546495
Pb       7.73517      0.06898      8.14534         0.091470     -0.880200      0.182927
Pb       7.80031      3.56141     12.57610         0.099566      0.802327     -0.466705
Pb       7.69895     15.39586     12.41515         0.533729      0.479569      0.734735
Pb       7.96310      7.85829      4.23791        -0.786470     -0.337875     -0.279038
Pb       7.63657      7.77331      0.00890         0.524778      0.157104      0.020361
Pb       7.73589      7.80049      8.11994         0.312497     -0.279785      0.855582
Pb       7.78071      7.67536     12.38379         0.005696      0.191413     -0.204342
Pb       7.87270     11.54511      4.16422        -0.116628      0.772730      0.096981
Pb       7.75547     11.89859     16.55606         0.287508     -0.344348     -0.268715
Pb       7.77417     11.67632      8.13485         0.389272      0.353947      0.632945
Pb       7.84757     11.60981     12.32017        -0.124999     -0.178631      0.661215
Pb      11.75558      3.64190      4.20821        -0.238494      0.600941     -0.356615
Pb      11.68373      4.09744      0.30821        -0.133982      0.246892     -0.194634
Pb      11.38789     15.38768      4.09579         1.047654      0.270109      0.319588
Pb      11.73573     15.57283     16.53334        -0.580945     -0.023560      0.474339
Pb      11.66941      4.13727      8.40733         0.266472     -0.804252      0.183593
Pb      11.80224      0.27043      8.44027         0.066785     -0.330784     -0.271102
Pb      11.82277      3.79149     12.52067        -0.512139     -0.157251     -0.287128
Pb      11.56659     15.55304     12.39565        -0.069221      0.141537      0.129270
Pb      11.56781      7.74954      4.20311         0.468946     -0.069981     -0.271586
Pb      11.70677      7.88356      0.04531        -0.090688     -0.382522     -0.183194
Pb      11.63376      7.79540      8.39137        -0.167622      0.018090     -0.403034
Pb      11.50543      8.02708     12.49676         0.492967     -0.602827     -0.095335
Pb      11.86065     11.31752      4.14007        -0.183250      1.101081      0.336750
Pb      11.63693     11.62137     16.62327        -0.026234      0.884258     -0.434854
Pb      11.82249     11.90651      8.39254        -0.202636     -0.295771      0.140716
Pb      11.85735     11.80230     12.49678        -0.317473      0.362807     -0.409150
Ti       1.96795      1.97323      2.26192        -0.313131     -1.234516     -0.170821
Ti       1.85157      1.87772     14.81308         0.181295      1.117468     -0.642635
Ti       1.89907     13.59150      2.18796        -0.730302      1.221325      0.857644
Ti       1.95306     13.64925     14.67304        -0.827348     -1.625773      0.382862
Ti      13.63343      1.95839      2.16151        -0.190473     -0.319335      0.739474
Ti      13.53287      2.02812     14.77596         0.041114     -0.213053     -1.206161
Ti      13.59085     13.62634      2.16908         0.064146     -0.101282      0.079198
Ti      13.59274     13.75443     14.66588         0.475441     -1.172869     -0.834090
Ti       1.82060      2.03217      6.41434         1.161124     -0.577315     -0.768859
Ti       1.82310     13.75814      6.26959         1.122274     -0.863544     -0.364370
Ti      13.63043      1.96092      6.24622        -0.368938     -0.332603      0.342372
Ti      13.62966     13.66085      6.31833        -0.050370     -0.294788      0.307882
Ti       1.98535      1.98280     10.52642        -1.215980     -0.094845     -0.638328
Ti       2.03178     13.71229     10.53925        -1.412315     -1.227613     -0.474583
Ti      13.75941      1.86296     10.65774        -0.075502      0.505904      0.582040
Ti      13.64912     13.70712     10.52704         0.889187     -1.089191     -0.147281
Ti       1.89254      5.80319      2.13325        -0.188855      0.985612      1.063550
Ti       1.90870      5.83151     14.75766        -0.253120      0.200907     -0.964637
Ti      13.67901      5.93133      2.25691        -0.846304     -0.439779      0.036939
Ti      13.56446      5.85517     14.80715         0.252426      0.601230     -0.448707
Ti       1.92099      5.92764      6.42096        -0.174689     -0.807967     -0.596367
Ti      13.63074      5.81730      6.26972         0.366360      0.773179     -0.098914
Ti       1.90507      5.90290     10.65466        -0.738201     -0.419069      0.019392
Ti      13.56475      5.77630     10.69273         0.719394      0.158555     -0.717448
Ti       1.90418      9.72882      2.16438        -0.888763      0.210521      0.490275
Ti       1.90390      9.68351     14.75974         0.104977      1.250905     -0.503487
Ti      13.61422      9.73858      2.07700         0.845488     -0.137779      1.818371
Ti      13.63799      9.86876     14.57988         0.173410     -0.646509     -0.048584
Ti       1.90637      9.68407      6.44549        -0.329399      0.680944     -0.702018
Ti      13.58344      9.78872      6.55427         0.501896     -1.005079     -0.962778
Ti       1.80471      9.70811     10.57140        -0.112433      0.315792     -0.701131
Ti      13.55261      9.69639     10.49520         0.547760      1.005044      0.744896
Ti       5.83187      1.93585      2.20993         0.639504      0.318659     -0.821845
Ti       5.76447      1.94085     14.62127         0.946612      0.145189      1.136253
Ti       5.81641     13.62414      2.16554         0.499653      0.267238      0.576016
Ti       5.81153     13.66557     14.60549         0.861918     -0.516225     -0.870142
Ti       5.74392      2.00277      6.36420         0.526010     -1.766028      0.341967
Ti       5.84290     13.58887      6.37018         0.807838      1.282901     -0.673910
Ti       5.76535      1.92656     10.46057        -0.492970     -0.362110      1.080440
Ti       5.92090     13.57255     10.50177        -0.965353      0.163269     -0.151124
Ti       5.79391      5.83940      2.31244         1.199114      0.002369      0.123583
Ti       5.90876      5.78571     14.59256         0.014754      0.697469      0.137518
Ti       5.95008      5.77973      6.34483        -1.077828      1.393195      0.091393
Ti       5.79725      5.77794     10.48569         0.869696     -0.274545     -0.608007
Ti       5.89950      9.71475      2.30590        -0.503389     -0.026193     -0.648102
Ti       5.91111      9.77073     14.68368        -0.305093     -0.703848     -1.232397
Ti       5.75887      9.75196      6.39655         0.227835     -0.755281     -1.453592
Ti       5.84809      9.63890     10.32515         0.496469      0.075708      1.740063
Ti       9.75030      1.98698      2.19398        -0.092345     -0.921245      0.688117
Ti       9.66915      2.00346     14.69569         0.693598     -0.548833     -0.565758
Ti       9.69299     13.67970      2.08731         0.160860     -0.616001     -0.133325
Ti       9.73232     13.70183     14.63675        -0.217365     -0.629630     -0.666535
Ti       9.73499      1.92123      6.45477         0.074019     -0.028781     -0.496517
Ti       9.84103     13.61384      6.43296        -1.555163     -0.080513     -0.869023
Ti       9.65300      1.90483     10.53259         1.001126      0.260705     -0.858771
Ti       9.68565     13.61953     10.50413         0.628537     -0.320265      0.381796
Ti       9.69287      5.80263      2.30907         0.967164      0.552449     -0.580845
Ti       9.76681      5.89414     14.60064        -0.189597      0.074408      0.262512
Ti       9.77880      5.73329      6.39936         0.384764      0.187345     -0.763575
Ti       9.74052      5.81203     10.54895        -0.801554     -0.171656     -0.361827
Ti       9.68048      9.74783      2.19253         0.395011      0.059257     -0.441019
Ti       9.73698      9.74242     14.64397        -0.680608      0.517842      0.062493
Ti       9.74345      9.71930      6.43871         0.138435      0.258219      0.158239
Ti       9.67586      9.70958     10.45072         0.152886      0.067113     -0.874273
O       1.89752      1.85218      0.48299         0.230950      0.394692      0.163962
O       1.85042      1.85058     13.03520         0.300184      0.269801     -0.276979
O       2.04740     13.66197      0.44739         0.069532     -0.299121     -0.897878
O       1.80950     13.64123     12.89959         0.603344      0.344283     -0.151279
O      13.59382      1.69665      0.36888         0.066302      1.028732      0.324583
O      13.90642      2.08591     12.96708        -1.353642     -0.383045      1.024186
O      13.46673     13.49662      0.37328         0.447956      0.485730     -0.118837
O      13.63874     13.65585     12.85583        -0.623916      0.180297      0.615762
O       1.86153      2.05797      4.58383         0.047565     -0.067933      0.084795
O       1.74365     13.69701      4.52025         0.395053     -0.130705      0.049430
O      13.64617      1.85009      4.46377        -0.104374      0.528132      0.711601
O      13.69877     13.50552      4.57061        -0.228285      0.234853     -0.499443
O       1.93050      2.06439      8.69068         0.053143     -0.259736      0.915605
O       1.86439     13.76672      8.76098         0.571708     -0.418081     -0.145174
O      13.70858      1.93809      8.90817        -0.236270     -0.189590     -1.364398
O      13.51348     13.80643      8.73922        -0.024663     -0.188518     -0.501260
O       1.98615      5.83879      0.38772        -0.367391      0.188273     -0.074532
O       1.89960      5.85252     12.90914         0.294765     -0.457435      1.211024
O      13.60318      5.94152      0.44351         0.260853     -0.354455     -0.556918
O      13.63480      5.78224     13.00342        -0.411578     -0.024999     -0.113190
O       1.97330      5.86575      4.61675        -0.247098     -0.081080     -0.184828
O      13.61402      5.84297      4.47025        -0.170459      0.107536      0.488497
O       1.73440      5.82997      8.88266         0.470548      0.224538     -0.480228
O      13.68289      5.78515      8.85788        -0.177976     -0.021737      0.486688
O       1.69801      9.85143      0.43017         0.150260     -0.109186     -0.896291
O       1.86435      9.83238     12.98034         0.265251     -0.507362     -0.670034
O      13.58646      9.88693      0.34646         0.039306     -0.189185     -1.160979
O      13.62680      9.73935     12.77327        -0.447762      0.303215      0.367476
O       2.05026      9.70033      4.69098        -0.247368     -0.195739     -0.692718
O      13.53601      9.73765      4.76098        -0.723880      0.399998     -0.560256
O       1.67761      9.54852      8.79418         0.677812      0.287722     -0.260447
O      13.72342      9.69467      8.73606        -0.273280     -0.162810     -0.745806
O       5.96657      2.05775      0.42475        -0.534910     -0.429066      0.379324
O       5.79690      1.92503     12.87585        -0.112905      0.525849     -0.646879
O       5.77691     13.62656      0.41073        -0.056136     -0.181194     -1.258415
O       5.93612     13.49100     12.78132        -0.667558      0.654099      1.062013
O       5.79695      1.81589      4.65931        -0.041499      0.695195     -1.529949
O       6.10950     13.77624      4.65145        -0.691744     -0.831753     -0.834306
O       5.53722      1.95444      8.70322         1.032852      0.073496     -0.154073
O       5.78042     13.52182      8.72733        -0.128779      0.412304     -0.271139
O       5.88741      5.81481      0.52193         0.038834      0.160745     -0.295875
O       5.71630      5.80818     12.82218         0.181663      0.089686      0.148888
O       5.78622      5.89256      4.55893         0.015733     -0.458454      0.678676
O       5.89627      5.82186      8.68017        -0.385537     -0.486512     -0.076789
O       5.79196      9.56062      0.51539         0.302460      0.503395     -0.610653
O       5.89028      9.64702     12.85198        -0.333984     -0.139489      0.740745
O       5.87876      9.70121      4.55040        -0.461190      0.184566      0.051376
O       5.95879      9.80706      8.62190        -0.204166     -0.508491     -1.463986
O       9.71052      1.95667      0.44037        -0.286046     -0.107772     -1.205479
O       9.61404      2.05543     12.88853         0.092260     -0.218694     -0.435646
O       9.79872     13.77357      0.28034        -0.997796     -0.388067      0.856674
O       9.69143     13.60561     12.80250         0.034799     -0.025247      0.753049
O       9.86922      1.97794      4.61167        -0.272219     -0.005879      0.846924
O       9.57111     13.68988      4.57337         0.590851     -0.144395      0.726982
O       9.79263      1.85177      8.65925        -0.341130      0.074809      1.552078
O       9.79508     13.54177      8.75721         0.097603      0.270208     -1.086107
O       9.64603      5.73983      0.43968        -0.105560      0.269938      0.567379
O       9.66261      5.77794     12.83784         0.466031      0.104792     -0.158134
O       9.93990      5.70477      4.53530        -0.250265      0.397863      1.156314
O       9.86037      5.81874      8.72183        -0.210424     -0.122588      0.399778
O       9.68180      9.63074      0.43535         0.326472      0.458656     -0.863933
O       9.67220      9.75900     12.84787         0.365707     -0.402079      0.152832
O       9.71981      9.58126      4.56784         0.496173      0.670782      0.157163
O       9.63794      9.59873      8.64883        -0.067533      0.154215      0.228695
O       3.89319      2.07506      2.60578        -0.671305     -0.312673     -0.372943
O       3.88189      1.97469     14.91808        -0.121816      0.123453      0.388146
O       3.96090     13.61265      2.67310        -0.684269     -0.029265     -0.370299
O       3.88571     13.66060     14.98057         0.180374      0.312274     -0.401520
O      15.51384      1.89641      2.56218         0.951674      0.008944     -0.289323
O      15.56481      1.98431     15.08853        -0.168062     -0.187489      0.293443
O      15.55943     13.54804      2.40020        -0.132217      0.117157     -0.145850
O      15.56917     13.71694     14.98718        -0.214528      0.175976      0.198810
O       3.85643      1.91269      6.66096        -0.755756      0.509528     -0.110833
O       3.82509     13.66524      6.51722         0.649395     -0.288697      0.464701
O      15.59030      1.94664      6.61069        -1.262275     -0.273024      0.258917
O       0.02034     13.63185      6.68409        -1.175643      0.110125      0.263886
O       3.83834      1.89810     10.90230         0.009282     -0.101895      0.337289
O       3.86440     13.58663     10.84965         1.193069      0.229396      0.130358
O       0.03915      1.88708     10.83926         0.275462     -0.281865      0.006930
O      15.56502     13.56453     10.76824         0.201691      0.320842      0.220582
O       3.93087      5.98372      2.53400        -1.198010     -0.666502     -0.177864
O       3.85053      5.87747     15.02002         0.224774     -0.249618     -0.301625
O      15.57628      5.89226      2.52314         0.857177      0.051911     -0.195540
O      15.49108      5.71201     14.98343         0.890411      0.430598      0.504719
O       3.82428      5.83464      6.69379         0.414614     -0.232441      0.339677
O      15.56302      5.94640      6.68163        -0.480005     -0.220788     -0.087827
O       3.81921      5.96099     10.81206        -0.204929     -0.824136      0.011321
O      15.53825      5.79874     10.96788        -0.083363      0.244557      0.206789
O       3.76911      9.74516      2.34198         1.335901     -0.040785      0.729301
O       3.81089      9.76450     15.12817         0.372566     -0.474892     -0.235272
O      15.54246      9.74949      2.75759        -0.130467     -0.229132     -0.968988
O      15.48548      9.89327     14.95936         0.503921     -0.561942      0.023698
O       3.87780      9.70013      6.69623         0.313861      0.037793      0.628470
O      15.53615      9.70547      6.51389         0.711790      0.157700      0.862443
O       3.95092      9.69898     10.63226        -0.421274     -0.380734      0.392922
O      15.52470      9.87667     10.83911         0.346114     -0.562586      0.217585
O       7.80938      1.90427      2.61380        -0.099709      0.547598     -0.352555
O       7.75904      1.93803     14.90111        -0.103482      0.340333      0.305470
O       7.71078     13.74089      2.37530         0.884807     -0.062991      0.038429
O       7.74857     13.65066     14.89377        -0.681067     -0.073127      0.661157
O       7.72655      1.91675      6.69703         0.522253      0.539312      0.192230
O       7.80860     13.70157      6.75672        -0.375576     -0.545433      0.290598
O       7.65813      1.90098     10.76506         0.980167      0.559087     -0.220293
O       7.76938     13.56031     10.79109        -0.204895      0.072090     -0.063624
O       7.89625      5.67696      2.80510        -0.687195      0.678442     -0.911774
O       7.80673      5.93271     14.84561        -0.672038     -0.554158      0.375488
O       7.82177      5.78941      6.73137        -0.226057     -0.151218     -0.592437
O       7.74297      5.92409     10.70791         0.403027     -0.615989      0.286605
O       7.79067      9.67127      2.50238         0.303858      0.191044      0.395957
O       7.74397      9.73826     14.97661         0.272627      0.072799      0.329421
O       7.82154      9.87142      6.48940        -0.756285     -0.984803      0.588736
O       7.82911      9.49481     10.72689        -1.160036      0.225222      0.277069
O      11.69208      1.91741      2.49278         0.175910     -0.019253     -0.085051
O      11.58649      1.89968     14.90095         0.874830      0.012618     -0.014184
O      11.60248     13.69241      2.34529        -0.013278     -0.394764      0.647573
O      11.59564     13.55089     15.03486         1.296735      0.796742     -0.732294
O      11.76617      1.88293      6.63494        -0.367173      0.228718      0.127889
O      11.69513     13.58159      6.54179         0.046259      0.031222      0.306070
O      11.64456      1.83394     10.88192        -0.478168     -0.106475      0.089993
O      11.55584     13.76674     10.89759         1.045414     -0.568935     -0.161998
O      11.66719      5.82992      2.26988         0.305220     -0.051198      0.764738
O      11.65612      5.99584     15.07074        -0.215519     -0.572705     -0.008589
O      11.72177      5.75000      6.73934        -0.123839      0.232592     -0.264882
O      11.68070      5.68496     10.80981         0.033568      0.157395      0.394019
O      11.71961      9.68041      2.54437        -0.504599      0.368015     -0.380146
O      11.67608      9.74322     14.88194        -0.494392      0.167219      0.247980
O      11.56223      9.79504      6.85475         1.382830      0.065736     -0.314369
O      11.63300      9.53988     10.66082         0.446397      0.834632      0.354479
O       1.80299      3.92439      2.43939         0.463623      0.001180      0.172502
O       1.87770      3.90136     15.16635         0.430929      0.039991     -0.623735
O       1.93776     15.52884      2.52594         0.249788      1.204337      0.046605
O       1.94189      0.03637     15.09241        -0.055725     -1.053479     -0.314711
O      13.70989      3.87522      2.46085        -0.561324     -0.493905     -0.413076
O      13.47984      3.88130     15.19212         0.186545      0.204304     -0.198946
O      13.60606     15.48167      2.50200         0.231744      0.519786     -0.041584
O      13.61113      0.03555     15.02929        -0.237261     -0.540236     -0.472019
O       1.73604      3.91442      6.68225         0.738210      0.242720      0.161570
O       1.92578      0.01490      6.71262        -0.357844      0.357478     -0.374282
O      13.60385      3.90458      6.66486         0.559865     -0.582491     -0.358555
O      13.65220     15.54629      6.59439         0.328033      0.952337      0.122361
O       1.82000      3.83841     10.95335         0.969735      0.244240     -0.065644
O       1.91079     15.52184     10.93932         0.550494      1.407113     -0.227162
O      13.63322      3.80815     10.98770         0.046737      0.766191     -0.187731
O      13.65553     15.55820     10.83198        -0.183117      0.930903      0.633455
O       1.83014      7.85560      2.50362         0.320386     -1.072699      0.016965
O       1.78656      7.79870     15.00489         0.003028     -0.638685      0.153727
O      13.59998      7.83814      2.34652         0.232385     -0.268078      0.435752
O      13.65831      7.88260     15.04565         0.078253     -0.565055     -0.125899
O       2.01480      7.77114      6.69609        -0.437562      0.295790      0.239638
O      13.55000      7.80656      6.64529        -0.182710     -0.764331      0.616215
O       1.78615      7.80352     11.02279         0.365281      0.179361     -0.370962
O      13.62538      7.80187     10.87850         0.272213     -0.641781     -0.086303
O       1.90090     11.69831      2.64138         0.276446     -0.316485     -0.413297
O       1.85339     11.71681     14.89718         0.310319      0.837634      0.720570
O      13.61856     11.61361      2.47822        -0.370639      0.523721      0.416390
O      13.59385     11.78655     14.82978        -0.243415     -0.628812      0.287604
O       1.97641     11.68677      6.68230        -0.137120     -0.092423      0.208425
O      13.67165     11.72408      6.79006        -0.262288      0.039003      0.111840
O       2.05581     11.63030     10.80522        -0.476684      0.039216      0.071790
O      13.52919     11.77353     10.67081        -0.852412     -0.974704      0.514789
O       5.82768      3.90727      2.65628         0.022466      0.012816      0.090606
O       5.86319      3.92072     15.01445        -0.231042      0.192432     -0.603815
O       5.79523      0.04484      2.40954        -0.399542     -0.170258      0.239761
O       5.88421      0.02912     14.85294        -0.623996     -0.702545      0.263728
O       5.72996      3.90755      6.61651         0.326931     -0.002550      0.145287
O       5.85137     15.57775      6.61694        -0.449341      0.046082      0.911425
O       5.74635      3.84682     10.73712        -0.105428     -0.059474      0.188438
O       5.90495     15.57720     10.97171        -1.110796     -0.444850     -0.921166
O       6.00551      7.77811      2.58549        -0.475644     -0.418835      0.004142
O       5.85745      7.74913     15.09694        -0.503201     -0.054441     -0.526601
O       5.86893      7.79134      6.60149        -0.013333     -0.256094      0.413395
O       5.74959      7.65134     10.67003         0.152862      1.817720      0.408371
O       5.89759     11.65152      2.43867        -0.187167      0.152398      0.332085
O       5.80284     11.65257     14.82016        -0.142865      0.582386      1.031028
O       5.81126     11.64592      6.61432        -0.189008      0.748333      0.162582
O       5.93804     11.60861     10.72029        -0.346053     -0.260327      0.147214
O       9.84913      3.83768      2.51292        -0.360051      0.240575      0.024694
O       9.66682      3.91415     15.00652         0.391370      0.315189     -0.317427
O       9.71107     15.60442      2.56761        -0.133544     -0.029564     -0.624493
O       9.64631     15.59182     14.83855         0.181952      0.637824      0.477715
O       9.69078      3.85938      6.80176         0.267820     -0.274000     -0.268235
O       9.70077     15.56750      6.68462         0.298889      0.475906      0.045996
O       9.70399      3.82687     10.81717        -0.433410     -0.407779     -0.236942
O       9.53790     15.51150     10.90516         0.514627      1.409474     -0.458686
O       9.80873      7.85681      2.48706        -0.552195     -1.537113      0.474701
O       9.66287      7.80838     14.82614         0.347107      0.256856      0.295651
O       9.82892      7.69124      6.67060        -0.502799      0.201317     -0.316128
O       9.82194      7.70934     10.80685        -0.193677     -0.052203      0.469557
O       9.57416     11.72095      2.38520         0.416529     -0.148910      0.038725
O       9.68377     11.75759     14.89271        -0.190783     -1.357080      0.687932
O       9.65929     11.66330      6.69686         0.515359      0.517735     -0.401969
O       9.66285     11.57867     10.81558         0.386928      0.420501     -0.393966
