  # total energy = -7883.20663436 
CRSYTAL
PRIMVEC
    15.6080000000000005    0.0000000000000000    0.0000000000000000
     0.0000000000000000   15.6080000000000005    0.0000000000000000
     0.0000000000000000    0.0000000000000000   16.6239999999999988
PRESSURE
-1.44824 -1.62054 -1.89288 -0.291704 0.320261 -0.071288
PRIMCOORD
320 1
Pb       3.99729      3.85434      4.11321        -0.334272      0.489314     -0.170295
Pb       4.07886      4.02041      0.13003        -0.289334     -0.030636     -0.404887
Pb       3.90985      0.02264      3.97212        -0.229425     -0.564067      0.213647
Pb       3.79730     15.57118     16.58198         0.404162     -0.028104     -0.176297
Pb       0.06508      3.83647      4.15922         0.139459      0.350649     -0.202045
Pb      15.55083      3.78400     16.60027         0.161205      0.099942      0.137697
Pb      15.55642     15.49150      3.99618         0.301866      0.177467      0.515406
Pb      15.56350     15.57562     16.57613        -0.535363      0.205149     -0.390604
Pb       3.68178      3.73558      8.29759         0.410148      0.372670      0.139593
Pb       3.85306      0.03032      8.18265        -0.062601     -0.067968      0.410326
Pb      15.46767      3.80908      8.28733         0.462952     -0.170875      0.026593
Pb       0.01174     15.56268      8.21819         0.267924      0.250973     -0.039976
Pb       3.79094      3.89272     12.49026         0.336111     -0.012788     -0.569801
Pb       3.83807     15.46518     12.46886         0.171551      0.846738     -0.493190
Pb       0.06899      3.95299     12.52122        -0.313116     -0.170549     -0.441605
Pb       0.04093      0.23566     12.69834        -0.013892     -0.483318     -0.750649
Pb       3.80527      7.89964      4.15141         0.133203     -0.574959     -0.087259
Pb       3.85642      7.75461     16.54502         0.169120     -0.224428     -0.320011
Pb       0.07957      7.88454      4.22534        -0.330733     -0.313032     -0.423692
Pb      15.60549      7.75494     16.56498         0.019288      0.023061     -0.110082
Pb       3.88321      7.69011      8.27650         0.133336     -0.176112     -0.049508
Pb      15.29423      7.71374      8.61738         0.568346      0.147905     -0.503000
Pb       3.93834      7.82986     12.40528        -0.192733     -0.758860     -0.423242
Pb      15.52043      7.91903     12.58252         0.542809     -0.127128     -0.478290
Pb       3.81545     11.70686      4.02098         0.192438      0.250876      0.443551
Pb       3.84448     11.71098     16.53700         0.091796      0.003270     -0.025738
Pb      15.54044     11.66367      4.02409        -0.166027     -0.153719      0.130131
Pb      15.54947     11.79345     16.56755        -0.002205     -0.342845     -0.121525
Pb       3.82325     11.74802      8.16002         0.598662     -0.511030      0.345043
Pb      15.60415     11.63224      8.25785        -0.044574      0.188610      0.081320
Pb       3.96227     11.62831     12.32461        -0.136916      0.246121     -0.242381
Pb       0.17112     11.63982     12.40966        -0.227957      0.263850     -0.593369
Pb       7.79012      3.66945      4.18147         0.170104      0.692146      0.172378
Pb       7.79773      4.00840     16.61810         0.114396     -0.017580      0.071903
Pb       7.70559     15.48142      4.07672         0.410281      0.148513      0.131518
Pb       7.83909      0.17127      0.06446         0.218723     -0.078582     -0.217846
Pb       7.63573      3.89025      8.39769         0.244932      0.076526     -0.632714
Pb       7.88534     15.60187      8.26526        -0.115058     -0.235842     -0.493461
Pb       7.75100      3.70588     12.42311        -0.217054      0.456468     -0.284138
Pb       7.66513     15.54425     12.50704         0.062689      0.022752     -0.660284
Pb       7.77517      7.84031      4.18344         0.161575      0.057531     -0.123329
Pb       7.65851      7.87095     16.58783         0.357552     -0.404294     -0.385294
Pb       7.83772      7.72287      8.20541        -0.473802     -0.130040      0.250825
Pb       7.75160      7.66057     12.44294         0.016698      0.052097     -0.748710
Pb       7.92416     11.74667      4.25461        -0.334565     -0.457303     -0.373462
Pb       7.62766     11.77108     16.57601         0.440558     -0.147859     -0.314842
Pb       7.73253     11.75310      8.20485        -0.108499      0.125358     -0.052560
Pb       7.74400     11.55321     12.39353        -0.340733      0.363526     -0.090476
Pb      11.87833      3.80833      4.36507        -0.310089      0.376641     -0.775733
Pb      11.77661      4.07002      0.20343        -0.518521     -0.292735     -0.212302
Pb      11.58014     15.43467      4.15387         0.027118      0.258639     -0.412007
Pb      11.58158     15.51065     16.62194         0.343054      0.462114     -0.287099
Pb      11.73679      4.13138      8.48460         0.206337     -0.483620     -0.755380
Pb      11.67146      0.17318      8.33621        -0.185336     -0.196990     -0.429899
Pb      11.79852      3.82692     12.59725         0.074240     -0.076424     -0.855082
Pb      11.64742      0.01878     12.43039        -0.005406     -0.045943     -0.025921
Pb      11.77705      7.71021      4.18812        -0.060860     -0.150087     -0.385377
Pb      11.53497      7.82024      0.01728         0.002002     -0.635447     -0.285185
Pb      11.62130      7.85352      8.33854         0.335646     -0.265475     -0.149221
Pb      11.45256      8.01269     12.65741         0.277905     -0.417383     -0.621818
Pb      11.81618     11.32830      4.22934        -0.027508      0.666916     -0.086722
Pb      11.68676     11.71320     16.52163        -0.345335      0.347882     -0.062007
Pb      11.92366     11.95053      8.53739        -0.249900     -0.482586     -0.350821
Pb      11.56261     11.86585     12.39471         0.273493     -0.353046      0.169462
Ti       1.94471      1.97522      2.10966        -0.121308      0.229150      0.451542
Ti       1.96726      1.97352     14.74921         0.203591     -0.003694     -0.448621
Ti       1.89838     13.63728      2.10427         0.553964      0.129826      0.424758
Ti       1.94428     13.59366     14.66335         0.269100      0.326214      0.153482
Ti      13.65721      1.87633      2.16722        -0.948876      0.255331     -0.357635
Ti      13.51981      1.95267     14.67829        -0.013834     -1.273866      0.611148
Ti      13.59345     13.64650      2.18404        -0.544125     -0.795205     -0.426144
Ti      13.63900     13.60524     14.56292        -1.052587      1.418900      0.348085
Ti       1.99651      1.89557      6.17122        -1.362472      0.414302      0.622168
Ti       1.95449     13.60110      6.35727        -0.640583      0.379300     -1.355398
Ti      13.64420      1.89740      6.30416         0.405472     -0.114384      0.344177
Ti      13.64432     13.64148      6.32319         0.077858     -0.613481     -0.078676
Ti       1.95612      1.92471     10.55217         0.712862     -0.668885     -0.923934
Ti       1.94451     13.72346     10.54370        -0.575027     -0.376553      0.279917
Ti      13.70416      1.83688     10.57448         0.047367      1.004494     -0.126508
Ti      13.79070     13.66485     10.57939         0.428293     -0.417199      0.963148
Ti       1.91215      5.85138      2.24383         0.002295     -0.167713      0.423607
Ti       2.00422      5.74933     14.72481         0.788608      0.280729     -0.929241
Ti      13.62680      5.78360      2.19066         0.281909      0.504613      0.449533
Ti      13.70920      5.81071     14.67626        -0.538142      0.472140      0.282468
Ti       2.01581      5.81034      6.36435        -0.235601     -0.387848     -1.212413
Ti      13.82230      5.77760      6.36495        -0.768375      0.413212     -0.139251
Ti       1.86736      5.78482     10.43681         1.916728      0.547950      0.875874
Ti      13.61725      5.81990     10.64393         0.489481     -0.724798     -1.141100
Ti       1.93957      9.74270      2.11479        -0.628093     -0.403981     -0.574651
Ti       1.94706      9.71476     14.69351        -0.250632     -0.295697     -0.064293
Ti      13.61501      9.65477      2.02075         0.506244     -0.028490      0.459282
Ti      13.63420      9.78158     14.59149         0.154791     -1.399318      0.567931
Ti       1.94478      9.68669      6.31132        -0.251807      0.086961      0.475743
Ti      13.65962      9.69553      6.48106         0.132864      0.145404      0.849609
Ti       1.97715      9.66822     10.48194        -0.200871     -0.170185     -0.738119
Ti      13.64213      9.75107     10.55237         0.082827      0.711435     -0.462388
Ti       5.85989      1.90580      2.18011        -0.097407      0.399094     -0.757101
Ti       5.78783      1.94456     14.76437         0.079353     -0.048443     -1.196951
Ti       5.78817     13.60376      2.06098         0.123572      0.379596      0.668847
Ti       5.80348     13.66860     14.55592         0.390533     -0.010188      0.917148
Ti       5.82854      1.91482      6.33226         0.967502      0.079774      0.376074
Ti       5.80873     13.68247      6.21740         0.816951     -0.568765      0.723470
Ti       5.86768      1.90213     10.47513        -1.175812      0.051063      0.409313
Ti       5.85314     13.68060     10.41628         0.182417     -0.314295      0.259932
Ti       5.83926      5.89101      2.23397        -0.073351     -0.636471     -0.388859
Ti       5.90281      5.83112     14.52694        -0.574628      0.341175      0.999257
Ti       5.89077      5.75192      6.35269        -0.373311      0.245477      0.539641
Ti       5.83640      5.76383     10.40400        -0.257472      0.578672     -0.147974
Ti       5.81491      9.78103      2.14465         0.780944     -0.076619      0.414200
Ti       5.80035      9.81235     14.60994         0.637938     -0.815524      0.720960
Ti       5.82837      9.71757      6.32618         0.183689      0.384372      0.568985
Ti       5.81580      9.70723     10.33388         0.482873     -0.215341      0.265801
Ti       9.74444      1.90164      2.29788         0.672590     -0.277345     -1.727954
Ti       9.66841      1.91874     14.55092         1.294503     -0.158783      1.749964
Ti       9.70454     13.53868      2.11487         0.411201      0.441978      0.245625
Ti       9.69067     13.63001     14.62540         0.135405      0.087477      0.022191
Ti       9.73186      1.94734      6.37414        -0.189776     -0.054582      0.626039
Ti       9.80171     13.54387      6.30987        -0.181933      0.645577      1.390742
Ti       9.80817      2.01301     10.43521        -0.133019     -0.909035      0.024355
Ti       9.76288     13.65465     10.48904        -0.611333      0.594466      0.122275
Ti       9.67043      5.78126      2.32804         0.870756      0.207465     -0.682226
Ti       9.78299      5.74825     14.59716        -0.468442      0.905999     -0.229729
Ti       9.81050      5.78936      6.34221        -0.294250     -0.815782     -0.444495
Ti       9.82739      5.83846     10.51226        -1.327995      0.300754      0.353961
Ti       9.75955      9.72945      2.16511        -0.638667     -0.279447      0.268587
Ti       9.71924      9.71369     14.69950        -0.829278      0.344403     -0.526071
Ti       9.75107      9.71960      6.41214         0.209638     -0.180420      0.058114
Ti       9.70174      9.79616     10.45530        -0.147090     -0.442192      0.688814
O       1.94040      2.01139      0.34423        -0.064695     -0.498226     -0.058116
O       2.02453      1.92906     12.90194        -0.289523      0.354429      0.742762
O       1.97273     13.58309      0.32786        -0.386304      0.093042     -0.310665
O       2.09834     13.48377     12.91219        -0.356568      0.269631      0.010472
O      13.60538      1.81770      0.33901        -0.079926      0.249176      0.752918
O      13.59483      1.92455     12.88186         0.259663      0.190607     -0.487697
O      13.65329     13.68894      0.39544         0.428202     -0.568275     -0.106778
O      13.45296     13.55207     12.80797         0.163634      0.064499      0.291305
O       1.97801      2.03451      4.38059        -0.179064     -0.423769      0.186924
O       2.00468     13.60345      4.53798        -0.323404     -0.030133      0.814471
O      13.73698      1.92631      4.52886        -0.432057      0.172284     -0.377807
O      13.64299     13.50619      4.51502        -0.011065      0.292369      0.265087
O       2.02524      1.73965      8.70824         0.066947      0.365377      0.621378
O       1.78343     13.72880      8.77472         0.325614     -0.056601     -0.579779
O      13.77326      1.90563      8.77748        -0.213098     -0.299766      0.095251
O      13.80470     13.61369      8.80492        -0.104490      0.251362     -0.694584
O       2.06537      5.84494      0.45836         0.074062      0.431099     -0.497117
O       2.05254      5.64777     12.88403        -0.436229     -0.063435      0.556813
O      13.58380      5.74417      0.36122        -0.011603     -0.005625      0.201481
O      13.77604      5.70959     12.87524         0.070399      0.313321     -0.350259
O       1.88384      5.81691      4.47804         0.186251     -0.276931      0.890259
O      13.74074      5.75374      4.54136         0.005354     -0.062217      0.542565
O       1.94395      5.86976      8.68123         0.162745     -0.021885     -0.786917
O      13.67709      5.74322      8.69813         0.355371     -0.128473      1.000875
O       1.98520      9.58823      0.30762        -0.239118      0.251031      0.675861
O       1.91397      9.76300     12.90969         0.052619     -0.063143     -0.165412
O      13.48829      9.61378      0.25269         0.315105      0.318767     -0.045501
O      13.69308      9.56196     12.78132        -0.118961      0.229753     -0.021793
O       1.88176      9.75545      4.49860         0.190078     -0.035029      0.194722
O      13.60981      9.66432      4.71757        -0.065777      0.074420     -0.995143
O       2.13600      9.47138      8.69331        -0.499374      0.794065     -0.033520
O      13.76639      9.72625      8.71642        -0.065931     -0.156528      0.461281
O       5.86577      1.88393      0.34903         0.271055     -0.104847      0.506869
O       5.99527      1.93855     12.89951        -0.046153     -0.001098      1.016816
O       5.84227     13.67051      0.26129         0.029904     -0.271663      1.122556
O       5.72619     13.67415     12.78064         0.268031     -0.158443     -0.202337
O       5.89966      1.99569      4.53307        -0.332562     -0.185879     -0.543610
O       5.74293     13.67764      4.43681         0.209722     -0.235841      0.179308
O       5.74269      2.01153      8.69019         0.190992     -0.440682      0.011286
O       5.93396     13.55094      8.66923        -0.175362      0.469404     -0.363336
O       5.81509      5.73265      0.38919         0.126287      0.691665      0.769272
O       5.89399      5.92585     12.75869         0.175877     -0.447775     -0.013484
O       5.92382      5.78179      4.55791         0.035242     -0.079405     -0.226798
O       5.88589      5.84365      8.56096        -0.029788     -0.395135      1.138238
O       5.97326      9.67798      0.35351        -0.721560      0.141654      0.558591
O       5.86853      9.85150     12.86149        -0.213606     -0.290217     -0.639490
O       5.88955      9.74091      4.56404        -0.076321     -0.121491     -1.193258
O       5.82486      9.80477      8.56127        -0.105080     -0.038620      0.568818
O       9.71154      1.86656      0.41760         0.174544      0.159664      1.456337
O       9.68017      1.87248     12.80348         0.026920     -0.124450     -0.963513
O       9.61418     13.40184      0.34596         0.291301      0.449306     -0.300144
O       9.88446     13.76198     12.83093        -0.031297     -0.256646      0.079735
O       9.52072      1.65601      4.63102         0.587460      0.752713     -1.066167
O       9.87836     13.55872      4.55293        -0.339211      0.249294     -0.488094
O       9.74267      1.89541      8.63550         0.179544      0.353024      0.395567
O       9.73199     13.43268      8.73105        -0.092044      0.142418     -0.612086
O       9.92717      5.74917      0.44715        -0.146945     -0.434359      0.395895
O       9.63385      5.96292     12.76745         0.650716     -0.007966      1.153374
O       9.63754      5.75740      4.50847         0.503881      0.518233      0.876415
O       9.88069      5.69534      8.72542         0.019446      0.322635     -0.142873
O       9.72903      9.79562      0.36337         0.384981     -0.149324      0.443660
O       9.77673      9.61624     12.84873        -0.306856      0.002679      0.391613
O       9.81535      9.52766      4.62321         0.099623      0.433036     -0.360117
O       9.67553      9.88763      8.71577         0.275889     -0.334952     -0.467104
O       3.90880      1.83446      2.38515        -0.443037      0.155846      0.115700
O       3.90922      1.87410     15.04381         0.544527     -0.389983     -0.167445
O       3.83771     13.79398      2.45745         0.245902     -0.310547     -0.441860
O       3.90156     13.59664     14.95844        -0.640450      0.057543      0.130839
O      15.49665      2.02724      2.35092         1.240353     -0.115716      0.326588
O       0.03764      1.86279     14.96096         0.061412      0.439522      0.043203
O       0.00978     13.52606      2.48322         0.041151     -0.036142     -0.054640
O      15.52058     13.68979     14.91568         0.865861     -0.831312     -0.025125
O       3.89065      1.88781      6.48073         0.045592     -0.120208      0.377952
O       3.93566     13.56920      6.62709        -0.910859      0.220590      0.184069
O       0.02331      1.90624      6.52867         0.316718     -0.284175      0.204787
O      15.57162     13.63784      6.68946         0.445571      0.191607     -0.480608
O       3.92829      1.85148     10.89120         0.376676      0.293531     -0.115920
O       3.83543     13.75202     10.68685         0.732086     -0.398295      0.242669
O       0.06163      1.87547     10.87829        -0.595440      0.335148      0.269897
O       0.03742     13.68957     11.10766         0.020907     -0.111379     -0.407689
O       3.91416      5.90761      2.54274         0.168577      0.062117      0.023548
O       3.97543      5.85813     14.90618        -0.228727      0.202768      0.423598
O      15.57905      5.72997      2.43961        -0.164589      0.083930     -0.091069
O       0.15384      5.69528     15.05418        -1.301003      0.012173     -0.124444
O       3.93501      5.66650      6.64905        -0.083940      0.399932     -0.188321
O       0.08750      5.70584      6.65395        -0.356396      0.185833     -0.003147
O       3.95701      5.72513     10.73930        -0.287404      0.145504      0.142411
O       0.09535      5.57194     10.77788        -1.162849      0.825087      0.215023
O       3.84773      9.66531      2.41307         0.648798     -0.344262      0.194687
O       3.90091      9.76380     14.92921        -0.310181     -0.313215      0.088399
O      15.53822      9.75618      2.40355         0.741157      0.017400     -0.053793
O      15.53693      9.76825     14.95999         0.294244     -0.238421      0.014763
O       3.92329      9.90698      6.50287        -0.731943     -0.338237      0.151752
O       0.01659      9.71677      6.59828         1.026127     -0.164549      0.248069
O       3.90474      9.67981     10.84927         0.574860      0.464920     -0.034557
O       0.08144      9.64420     10.75863        -0.532154      0.058401      0.479290
O       7.76268      1.87716      2.52173        -0.332699     -0.059237     -0.156678
O       7.87427      1.94304     15.13230        -0.987543      0.056356     -0.774819
O       7.78243     13.51884      2.48929        -0.545573     -0.290864     -0.060847
O       7.76668     13.51303     14.81238         0.295935      0.249709     -0.082312
O       7.74610      1.93284      6.65275         0.260192     -0.019114      0.404016
O       7.78015     13.75672      6.59529         0.931853     -0.607665     -0.292357
O       7.84389      1.95427     10.76655         0.251584     -0.149133     -0.115157
O       7.83823     13.77072     10.80741        -0.536244     -0.367546      0.134622
O       7.85419      5.71956      2.39614        -1.169739     -0.069161      0.097132
O       7.76871      5.78488     15.01551         0.791708     -0.036333     -0.267661
O       7.85262      5.72731      6.75129        -0.267824      0.790259     -0.300525
O       7.81346      5.84334     10.69558         0.588170     -0.105302      0.091102
O       7.73435      9.86499      2.46977         0.606897     -0.111311      0.239907
O       7.80677      9.80131     14.91450        -0.120959      0.051420      0.146681
O       7.86446      9.57815      6.57611        -0.405899      0.196788      0.203603
O       7.74982      9.74651     10.73334        -0.146443     -0.068880      0.185040
O      11.62839      1.66769      2.64463         0.420321      0.618006     -0.201711
O      11.66197      1.86881     14.84357        -0.226364      0.532983      0.010023
O      11.70509     13.76858      2.26382        -0.273696     -0.434494      0.513736
O      11.70469     13.67784     15.05947         0.000546     -0.577742     -0.149636
O      11.70212      2.03902      6.61176         0.142998     -0.558710     -0.109631
O      11.72809     13.51149      6.75096        -0.245074      0.407579     -0.214508
O      11.75767      1.93403     10.73439        -0.127747     -0.418315      0.341813
O      11.73803     13.48759     10.61590         0.007104     -0.036745      0.586197
O      11.75477      5.82727      2.66717        -0.370515     -0.054132     -0.306843
O      11.73048      5.90024     14.90418        -0.079383     -0.325696     -0.267391
O      11.79696      5.77513      6.64755        -0.499817      0.012719     -0.250422
O      11.80922      5.85715     10.75303        -0.636372     -0.025342      0.433019
O      11.73143      9.66737      2.57854        -0.608717     -0.336618     -0.474167
O      11.65113      9.53568     14.85422         0.834073      0.184346      0.047854
O      11.74851      9.71299      6.79022        -0.447464     -0.145427     -0.202086
O      11.71027      9.85249     10.71173         0.190104     -0.366382      0.254698
O       1.96524      3.91995      2.42963         0.221495     -0.799474      0.113557
O       2.19515      3.84316     15.04703        -0.844916      0.124110     -0.272543
O       1.79471     15.59105      2.37588         0.133484      0.386013      0.053950
O       1.93276     15.54682     15.01573         0.168915     -0.225503     -0.214699
O      13.42856      3.80754      2.39266         0.170711     -0.109937      0.101304
O      13.72082      3.83421     14.97865        -0.278488      0.469203      0.047609
O      13.77837     15.50769      2.50457        -0.137201      0.566339      0.057589
O      13.62163     15.59488     14.91198         0.295754     -0.551611     -0.115492
O       2.00914      3.81687      6.62658        -0.226764     -0.616699     -0.134535
O       1.96413     15.55610      6.67543         0.155099     -0.082545     -0.631628
O      13.75365      3.80497      6.67257        -0.263876      0.690693     -0.254482
O      13.55929     15.57939      6.56870         0.167445     -0.323281      0.266639
O       2.06697      3.80663     10.62153        -0.099250      0.408544      0.625810
O       1.92088      0.00265     10.96815         0.078389     -0.474111      0.075799
O      13.67626      3.85265     10.87741        -0.057372     -0.163398      0.137099
O      13.72152     15.53447     10.98543        -0.387382      0.746980     -0.429514
O       1.85089      7.84718      2.56947         0.197678     -0.402221     -0.143769
O       1.92428      7.76185     14.88801         0.071380     -0.075236      0.347342
O      13.65512      7.75528      2.43746         0.074397     -0.097658      0.139968
O      13.82860      7.67629     14.92995        -0.042362      0.192326     -0.267969
O       2.13636      7.67765      6.41709        -0.100343      1.519179      0.267772
O      13.78620      7.72273      6.78430        -0.433781     -0.074919     -0.318627
O       2.01082      7.75833     10.88579        -0.145159     -0.707108      0.092189
O      13.80883      7.74710     10.62490         0.099812     -0.083737      0.683444
O       2.08727     11.70309      2.37184        -0.608037     -0.494596     -0.015700
O       1.89979     11.62227     15.09614        -0.118041      0.910955     -0.302876
O      13.66281     11.56708      2.45320        -0.495162      0.681227      0.018194
O      13.58348     11.59921     14.88146        -0.088944      0.992831      0.152763
O       1.91056     11.66391      6.68783         0.088155      0.211990     -0.000038
O      13.73333     11.69724      6.73415        -0.176633     -0.182119     -0.036855
O       1.92025     11.66887     10.77421         0.270392     -0.105581      0.054744
O      13.87988     11.67882     10.74022        -0.449206     -0.727894      0.302090
O       5.75048      3.87124      2.36820         0.210702     -0.670606      0.562782
O       5.80517      3.88376     14.94480         0.298022     -0.414294     -0.017274
O       5.82948     15.53744      2.50358         0.345144      0.464358     -0.383560
O       5.86390     15.54448     14.88143         0.142730      0.462721      0.111858
O       5.87448      3.85716      6.67079        -0.011066     -0.245297     -0.289020
O       5.90317     15.57646      6.58838        -0.636315      0.455340      0.090599
O       5.97423      3.87326     10.77231        -0.219004     -0.406109     -0.018798
O       5.81428     15.58468     10.75376         0.517054      0.336051      0.209084
O       6.00295      7.72686      2.55651        -0.468339      1.054249     -0.482179
O       5.92115      7.77098     14.85635        -0.107758      0.407217      0.333169
O       5.75974      7.83547      6.70373         0.338229     -0.863082     -0.569733
O       5.78326      7.74973     10.65820         0.164945      0.876555      0.194443
O       5.57603     11.71360      2.39981         0.633799     -0.330902     -0.422450
O       5.78028     11.68241     14.97810         0.086396      0.238646     -0.063923
O       5.97965     11.73722      6.56216        -0.057011     -0.176562     -0.080741
O       5.81368     11.74044     10.69966         0.020682     -0.687461      0.387645
O       9.75094      3.79335      2.55391         0.320651     -0.264354      0.152992
O       9.76147      3.91043     14.66889         0.008283     -0.298295      0.556648
O       9.66884     15.48012      2.42430        -0.374071     -0.332601      0.252313
O       9.80088     15.58107     14.95643        -0.749932     -0.295978      0.055924
O       9.74781      3.88051      6.58547         0.081826     -0.264317     -0.135167
O       9.78641     15.58052      6.71330         0.419132     -0.549017      0.297124
O       9.99998      3.89471     10.81084        -0.707496     -0.285520      0.120454
O       9.88020     15.58401     10.63245         0.088267      0.101796      0.223490
O       9.67939      7.74349      2.46670         0.163826      0.701328     -0.010518
O       9.65469      7.76815     15.08974         0.213702     -0.015381     -0.464584
O       9.80367      7.69733      6.81135         0.127314      0.239062     -0.254218
O       9.77448      7.76630     10.74260         0.298739      0.734168     -0.151290
O       9.85738     11.62489      2.53398        -0.136897     -0.083747      0.283913
O       9.85491     11.70691     14.80446         0.165283     -0.632956      0.173440
O       9.65638     11.61991      6.44972        -0.115762      0.505753      0.193592
O       9.61099     11.67845     11.01709         0.650245      0.032760     -0.689845
