  # total energy = -7878.50866068 
CRSYTAL
PRIMVEC
    15.6080000000000005    0.0000000000000000    0.0000000000000000
     0.0000000000000000   15.6080000000000005    0.0000000000000000
     0.0000000000000000    0.0000000000000000   16.6239999999999988
PRESSURE
-0.6938 -1.00595 -1.77701 0.082187 -0.292672 -0.011326
PRIMCOORD
320 1
Pb       3.73566      3.83602      4.16278         0.368965     -0.013196     -0.878610
Pb       3.74214      3.73302     16.56954         0.140751      0.591801      0.104755
Pb       3.93688     15.43914      4.31423        -0.436881     -0.065658     -0.440334
Pb       4.01343      0.00641      0.05969        -0.249664     -0.314661     -0.053656
Pb       0.00146      3.90677      4.15818        -0.288212     -0.002257     -0.301770
Pb      15.60005      3.96073      0.00058        -0.401696     -0.347696     -0.025556
Pb       0.08585     15.59198      4.31506         0.016889     -0.661011     -0.334285
Pb      15.59916     15.56424      0.03765        -0.342024      0.207069     -0.698646
Pb       4.06582      4.04494      8.28884        -0.452089     -0.825915      0.382561
Pb       3.88474     15.57275      8.44493         0.098672     -0.192002     -0.567655
Pb       0.11376      3.94511      8.26306        -0.958637     -0.178334      0.191910
Pb      15.57866      0.04692      8.38505         0.152824     -0.297977     -0.542420
Pb       3.95455      3.84876     12.34428         0.085334      0.067132     -0.547828
Pb       3.94605      0.15202     12.37004        -0.120590     -0.641098     -0.073226
Pb      15.50822      3.85338     12.39463         0.239226      0.056906     -0.225029
Pb      15.49261     15.52066     12.30778         0.398975     -0.247842      0.174967
Pb       3.96439      7.66468      4.21459        -0.680694      0.424003     -0.798313
Pb       3.87077      7.85228      0.05498        -0.112462     -0.226462     -0.161485
Pb      15.48197      7.71428      4.15096         0.396834      0.639919     -0.626041
Pb       0.00862      7.77807      0.01270        -0.078312      0.237459      0.186251
Pb       3.89008      7.84722      8.28130         0.217658      0.137404     -0.282801
Pb       0.18588      7.87586      8.03047        -0.930462     -1.159965      0.901837
Pb       3.77063      7.78487     12.47099         0.235201      0.273552     -0.082625
Pb       0.05243      7.73269     12.38627        -0.886257      0.498033     -0.036244
Pb       3.99840     11.58370      4.29105        -0.637497      0.420818     -0.542949
Pb       3.90452     11.64801      0.01011         0.072766      0.008648      0.166568
Pb       0.06713     11.65248      4.24325         0.071955      0.272379     -0.464710
Pb       0.01935     11.58397     16.56228        -0.240624     -0.016870      0.446505
Pb       3.89608     11.49796      8.37463         0.311348      0.658062     -0.271695
Pb      15.60607     11.72730      8.39971        -0.146387      0.239434     -0.829242
Pb       3.78118     11.71465     12.58970        -0.143587      0.006956      0.206439
Pb      15.36263     11.78401     12.47908         0.448801     -0.300639     -0.072193
Pb       7.88521      4.06408      4.12810        -0.432542     -0.547680      0.113704
Pb       7.75682      3.73598      0.12662         0.278781      0.002937     -0.862952
Pb       7.90535      0.05280      4.18901        -0.672495      0.302487     -0.094420
Pb       7.80843     15.43725     16.56083         0.356196      0.182595     -0.299475
Pb       7.89022      3.93594      8.08184        -0.071120     -0.170649      0.633744
Pb       7.70457     15.60421      8.34400        -0.260257     -0.349606     -0.722292
Pb       7.80619      4.07029     12.53779        -0.516296     -0.059791     -0.300875
Pb       7.78102      0.04530     12.39305        -0.059198      0.355871      0.361280
Pb       7.79549      7.76868      4.15821         0.009111     -0.275349     -0.341355
Pb       7.85198      7.61612      0.07085        -0.484389      0.181631     -0.406529
Pb       7.67930      7.76309      8.37717         0.492886     -0.035420     -0.256085
Pb       7.66409      7.98849     12.58451         0.075332     -0.629993     -0.397576
Pb       7.76598     11.62462      4.15988        -0.005857      0.354304     -0.527794
Pb       7.90904     11.55096      0.06977        -0.124113      0.393902     -0.387313
Pb       7.80453     11.57612      8.46413        -0.334822      0.590799     -0.238924
Pb       7.71604     11.81173     12.52288         0.131248     -0.610634      0.135521
Pb      11.55670      3.96179      3.91685         0.108192     -0.115114      1.306372
Pb      11.61445      3.66649     16.47472         0.282002      0.591615      0.181845
Pb      11.95982      0.12898      4.16746        -0.835369     -0.321151      0.356057
Pb      11.78814     15.58981      0.01881         0.047949     -0.163282     -0.316835
Pb      11.69331      3.63033      8.09237         0.293296      1.067520      0.357768
Pb      11.81874     15.43320      8.31414        -0.598683      0.154979     -0.094966
Pb      11.52337      3.95806     12.34544         0.512668     -0.131285      0.374920
Pb      11.76324      0.07176     12.58025        -0.133883     -0.533836     -0.453814
Pb      11.65592      8.06732      4.17814         0.233718     -1.021444     -0.042642
Pb      11.74031      7.74074     16.55962        -0.083826      0.026904      0.271552
Pb      11.71358      7.72963      8.28196         0.037594     -0.271076     -0.325071
Pb      11.89693      7.55624     12.39788        -0.318585      1.134488      0.386873
Pb      11.57714     12.06226      4.09235         0.417457     -0.603280      0.074890
Pb      11.63378     11.73130      0.06215        -0.006601     -0.408885     -0.251221
Pb      11.51777     11.48997      8.13542         0.962777      1.260451      0.636632
Pb      11.66221     11.53119     12.53785         0.132442      0.172074     -0.199996
Ti       1.88953      1.94186      2.22004         0.312268      0.074306     -0.399552
Ti       1.85512      2.02152     14.54771        -0.701726     -1.023476     -0.626479
Ti       1.86269     13.74142      2.13459         0.281119     -0.943744      2.112793
Ti       1.85749     13.70032     14.67942         0.192293     -0.104961     -1.365842
Ti      13.67920      1.98308      2.25656        -0.215747     -0.000670     -1.325879
Ti      13.67836      1.87970     14.57319        -0.401107      0.012583      1.173289
Ti      13.65769     13.68483      2.15081         0.213637      0.074078     -0.153289
Ti      13.62367     13.46271     14.66495        -0.075889      1.017025      0.405328
Ti       1.98755      1.89915      6.32681         0.024372     -0.116192      0.698239
Ti       1.93743     13.53638      6.45269        -0.359727      0.370683     -0.864759
Ti      13.69927      1.89141      6.34518        -0.418891      0.513268      0.852654
Ti      13.61730     13.56611      6.35852         0.228106      0.427141     -0.261208
Ti       1.88414      1.83869     10.51003         0.631178      0.488531     -0.397288
Ti       1.98892     13.54875     10.53254        -0.278245      0.943402     -0.636225
Ti      13.55234      1.96368     10.49703         0.198575     -0.067556     -1.322537
Ti      13.47325     13.65137     10.43901         0.020273     -0.922266      0.123779
Ti       1.80055      5.89470      2.18887         1.182052      0.594554     -0.008627
Ti       1.96398      5.88363     14.55007         0.126074     -0.329770      0.649336
Ti      13.51881      5.81302      2.25527         0.023345      0.529856     -0.125135
Ti      13.68507      5.72696     14.67334        -1.017691      0.207235      0.257933
Ti       2.06638      5.70753      6.32480        -1.445807      1.129834     -0.797971
Ti      13.70146      5.84251      6.23911        -1.390593     -0.408282      0.114045
Ti       1.92654      5.83176     10.44766        -0.048539     -0.453092     -0.723013
Ti      13.64739      5.81239     10.35644         0.008078      0.456344      0.994278
Ti       1.92918      9.83995      2.26903        -0.713998     -0.886326      0.186678
Ti       1.91141      9.71306     14.69022        -0.236236      0.523608      0.046824
Ti      13.52142      9.81652      2.32442         1.126463     -0.478711     -1.490975
Ti      13.60472      9.58767     14.78730         0.388182      0.811688     -0.421668
Ti       1.99017      9.68648      6.30352        -0.472778      0.737052     -0.729391
Ti      13.63521      9.69053      6.31925         0.344846      0.630310      0.128663
Ti       1.87677      9.79471     10.43534         0.287150     -0.281210      0.567056
Ti      13.66499      9.73741     10.43451        -0.274355     -0.331519      0.115754
Ti       5.74220      1.94875      2.21798         0.220182      0.010109      0.519449
Ti       5.80083      1.92153     14.70243         1.250471      0.677173     -0.921531
Ti       5.80770     13.66287      2.32216        -0.614491     -0.216329     -0.680118
Ti       5.70911     13.62528     14.69321         0.189871     -0.419134      0.041374
Ti       5.76412      1.99988      6.25122         0.838503     -1.757774      0.376402
Ti       5.77412     13.60058      6.34684         0.186951      1.089789      1.133824
Ti       5.99994      2.06683     10.34701        -1.378582      0.189245      0.176256
Ti       5.86695     13.69698     10.58338        -1.362789      0.064208     -2.269641
Ti       5.76443      5.87812      2.08821        -1.056390     -0.409813      0.098898
Ti       5.87366      5.80194     14.72969         0.005083      0.603572     -0.777798
Ti       5.82095      5.80649      6.30486         1.515951      0.585522     -0.545627
Ti       5.80760      6.04819     10.41631         0.755570     -2.133094      1.281780
Ti       5.80774      9.81102      2.26206        -0.412352      0.213419     -1.252718
Ti       5.84314      9.77176     14.70175        -0.507066     -0.840248      0.640206
Ti       5.94719      9.71377      6.37672        -1.286334     -0.109950     -0.573604
Ti       5.77712      9.86151     10.65682         0.118539     -0.493573     -0.870743
Ti       9.65050      1.89065      2.19217         0.182101      0.572301      0.224923
Ti       9.71016      1.86415     14.53470        -0.261674      0.392051      2.253151
Ti       9.67362     13.68889      2.26147         0.029449     -0.038156     -1.173097
Ti       9.77410     13.59015     14.62209         0.135497     -0.002986      1.093567
Ti       9.68113      1.85907      6.38847         0.366923      0.062160     -0.687968
Ti       9.62807     13.69474      6.33632         0.916325     -0.332947      0.341843
Ti       9.73519      1.90771     10.51848         0.001120      0.255251     -0.308133
Ti       9.64293     13.62652     10.51886         1.572282      0.058371     -0.704386
Ti       9.65537      5.86317      2.04687         0.958518      0.166536      0.659571
Ti       9.71090      5.85378     14.61810         0.444546     -0.924097      1.252290
Ti       9.76741      5.90001      6.35670         0.737433     -0.135367     -0.640177
Ti       9.68708      5.91108     10.47980        -0.521051      0.120772     -0.152655
Ti       9.65457      9.75396      2.10761         1.067841     -0.107374     -1.304650
Ti       9.70024      9.64853     14.59151         0.738225      0.902464      0.210026
Ti       9.73632      9.74486      6.36341         0.035407     -0.831194      0.245894
Ti       9.83805      9.78046     10.48932        -0.155139     -1.249968      1.010725
O       1.71793      2.03158      0.41361         0.741108     -0.221483     -0.524256
O       1.86455      2.01807     12.70243         0.143340     -0.191761      1.303256
O       1.69732     13.88899      0.39753         0.328157     -0.285891     -1.141850
O       1.98641     13.48316     12.82503        -0.307460      0.444977      0.288110
O      13.55129      2.06457      0.41828         0.229933     -0.284886      0.686794
O      13.58244      1.90564     12.81335         0.134370      0.101966     -1.449346
O      13.69803     13.81107      0.31542         0.011010     -0.055956      0.919171
O      13.41636     13.42716     12.83737         0.339958      0.526473      0.486096
O       1.99318      2.05426      4.52047        -0.404714      0.082782      0.284056
O       2.00676     13.54727      4.64271        -0.509916      0.328423      0.237481
O      13.75470      1.81183      4.56523         0.111393      0.070965     -0.293633
O      13.60159     13.85548      4.52848        -0.160423     -0.695315      0.819531
O       1.92953      1.75688      8.72981         0.142283      0.380229     -0.232091
O       1.92261     13.50258      8.68366        -0.037924      0.434288      0.582053
O      13.50409      1.99821      8.61720         0.044589     -0.554197      1.391940
O      13.56608     13.62399      8.63776         0.406816     -0.208384      0.474681
O       1.86253      5.92244      0.35936        -0.058065     -0.364801      0.428810
O       1.76467      6.04211     12.75511         0.579800     -1.077624      0.297787
O      13.59695      5.63078      0.47287        -0.250885      0.661650      0.130348
O      13.67004      5.95019     12.89614         0.263886     -0.485926     -0.466334
O       2.03405      5.81813      4.48383        -0.343186     -0.892566      1.175311
O      13.51754      5.85329      4.46182         0.701758      0.009717      0.596318
O       2.06418      5.76876      8.58202         0.051298      0.502929      1.120942
O      13.58990      5.91813      8.65015        -0.263386     -0.126604     -1.008655
O       1.82999      9.56887      0.45842         0.449416      0.338036      0.332248
O       1.88169      9.83486     12.91061         0.033993     -0.399136     -0.118406
O      13.53753      9.62137      0.51321         0.228083      0.374946      0.226257
O      13.90922      9.55963     13.04837        -0.620134      0.545276     -0.833851
O       1.95769      9.86840      4.51992        -0.110646     -0.023731      0.597352
O      13.56605      9.67411      4.53000        -0.188127      0.404604     -0.200326
O       2.00239      9.87691      8.61886        -0.148583     -0.689763      0.377790
O      13.57090      9.78694      8.66616         0.064314     -0.097179     -0.262785
O       5.73675      1.76217      0.39635         0.217363      0.673320     -0.324789
O       6.09105      2.09181     12.91751        -1.177798     -0.714393      0.388886
O       5.60094     13.54913      0.50051         0.469134      0.580863      0.052272
O       5.60198     13.59170     12.92695         0.581906      0.109778     -1.118919
O       5.78837      1.93877      4.48786        -0.210870      0.143099     -0.557056
O       5.63374     13.61848      4.55411         0.348769     -0.065007     -0.436817
O       5.95615      1.90228      8.56355        -0.478902      0.057322      0.614395
O       5.93952     13.61885      8.66896         0.149670      0.466489      1.691813
O       5.70805      5.92122      0.30078         0.010898     -0.056907      0.927062
O       6.14822      5.81712     12.89575        -0.623012     -0.052959      0.329180
O       5.92809      5.86169      4.51263        -0.111932      0.248917     -0.530214
O       5.61245      6.01990      8.63494         0.173841      0.098881     -0.554680
O       5.73168      9.98348      0.42786        -0.020715     -0.686799      0.263797
O       5.77203      9.81931     12.91140         0.264687     -0.146392     -1.286644
O       5.90504      9.75946      4.55115         0.212232      0.336488      0.594202
O       5.73193      9.66843      8.76234        -0.230865      0.167880      0.536236
O       9.65554      2.09984      0.43292         0.125508     -0.408797     -0.116630
O       9.72437      1.78767     12.79712         0.046441     -0.093298     -1.132884
O       9.59207     13.52826      0.42990         0.114863      0.463817      0.828798
O       9.94486     13.61575     12.85535        -0.588652     -0.035975      0.121983
O       9.68742      1.69053      4.61588        -0.233416      0.209345      0.056380
O       9.91387     13.77580      4.50883        -1.022384     -0.116322      0.669086
O       9.78417      2.03524      8.74449        -0.162071      0.013876     -0.612177
O       9.42197     13.39403      8.74395         0.385806      0.365433      0.057882
O       9.79012      5.81993      0.29163        -0.350683     -0.097597      0.159177
O       9.55756      5.84404     12.83482         0.099108      0.291459      0.062333
O       9.44036      5.97391      4.55224         0.257725      0.077143      0.157873
O       9.76486      5.77605      8.70159        -0.055280      0.138212     -0.257814
O       9.86975      9.88968      0.24474        -1.046234     -0.377301      1.593206
O       9.66573      9.65963     12.78261         0.006356      0.322005      0.516080
O       9.69386      9.53556      4.61227        -0.597970      0.497851     -1.057639
O       9.76044      9.76245      8.66359        -0.041001      0.256968      0.485694
O       3.80960      1.95710      2.38135         0.398540     -0.075795      0.148693
O       3.78157      1.93747     14.89956         0.056315      0.101371     -0.020312
O       3.70057     13.63005      2.56738         1.011405      0.371623     -0.361175
O       3.76409     13.68973     14.88393        -0.182567      0.047214      1.022346
O       0.01408      2.11800      2.51659        -1.094175     -0.345043      0.268962
O      15.48654      2.24258     14.83526         1.086783     -0.654809     -0.063427
O      15.47112     13.73202      2.65438         0.853156      0.197018     -0.444320
O      15.51177     13.61721     14.84857         0.126192     -0.409676      0.075782
O       3.90048      2.03567      6.53998        -0.454596      0.090125      0.409022
O       3.85859     13.72377      6.65581         0.226697     -0.325501      0.450544
O      15.57432      1.84776      6.78081        -0.015756      0.454856     -0.565036
O       0.02592     13.70259      6.66384        -0.966012      0.314058      0.155724
O       3.91086      1.85799     10.74187         0.488853      0.479455      0.233951
O       3.93760     13.81607     10.59772        -0.303214     -0.223556      0.621434
O      15.57780      1.84631     10.66796        -0.713703      0.227084      0.466769
O      15.49609     13.62953     10.78665         0.414383     -0.350484      0.092469
O       3.76055      6.19479      2.38004         1.641090     -0.991251      0.097393
O       3.96927      5.82258     14.77120        -1.831900      0.034753     -0.019494
O      15.45176      5.72982      2.58907         0.940173      0.320279     -0.274596
O      15.51452      5.72138     14.96723         0.934317      0.471214     -0.227359
O       3.96170      5.78754      6.39058        -1.353157     -0.429636      0.930319
O      15.60474      5.83836      6.60641         0.409837     -0.097647     -0.127815
O       3.86207      5.93879     10.80338        -0.110128     -0.387827      0.255603
O      15.51130      5.80039     10.61638         1.278308     -0.265480      0.374883
O       3.86644      9.74650      2.61254        -0.502036      0.228640     -0.294111
O       3.82967      9.59364     14.98351        -0.437118      0.362996      0.079604
O      15.52426      9.81810      2.70930        -0.064121     -0.060564     -0.456825
O      15.58738      9.66545     15.09135         0.409491     -0.000288      0.376289
O       3.85907      9.72938      6.60371         0.247053      0.357651      0.219314
O      15.59020      9.60442      6.64189         0.369649      0.759608     -0.517606
O       3.83439      9.80208     10.89731         0.059597     -0.466404     -0.319458
O       0.00494      9.89941     10.66173         0.245618     -0.286137      0.098944
O       7.75214      2.12876      2.60933        -0.789989     -0.468804     -0.531227
O       7.85529      1.78988     15.00997        -1.244200      0.278332      0.137370
O       7.74180     13.65304      2.66703        -0.716873     -0.242041     -0.178504
O       7.63777     13.55298     14.87703         0.669964      0.053813      0.021577
O       7.77568      1.99297      6.60411         0.482447     -0.607914      0.097342
O       7.79939     13.75286      6.55441        -0.452846     -0.669749     -0.521659
O       7.78187      1.95592     10.72502         1.011053     -0.205694      0.137678
O       7.73870     13.59894     10.94015         0.360959      0.062462      0.392196
O       7.72203      5.94724      2.26217        -0.920938     -0.584045      0.283778
O       7.75335      5.63750     15.22603         0.906400      0.799239     -0.455024
O       7.66566      6.00880      6.69818         1.121302     -0.419432      0.407070
O       7.73966      5.95005     10.63997         0.293269     -0.124062     -0.157327
O       7.79156     10.00489      2.31562        -0.323687     -0.260744      0.590768
O       7.74756      9.86309     14.86009         0.632410      0.130194      0.269277
O       7.75980      9.72391      6.68751         0.445820     -0.347564      0.083429
O       7.67014      9.82524     10.75515         0.877934     -0.002970      0.205710
O      11.58182      1.93306      2.62609         0.138750      0.245362     -0.638488
O      11.60958      1.81179     14.99159         0.470493     -0.178886     -0.401163
O      11.63655     13.81093      2.52539        -0.066043     -0.203253     -0.584258
O      11.73280     13.63033     15.13805        -0.705485      0.355389     -0.491921
O      11.66017      1.98336      6.51550        -0.016090     -0.321883      0.205841
O      11.69738     13.53603      6.71382        -0.458568     -0.203871     -0.188228
O      11.66082      1.88536     10.83826         0.033028      0.188668      0.103163
O      11.59421     13.65812     10.59919         0.507157     -0.012866      0.166098
O      11.52125      5.91589      2.52428         0.610372      0.021718     -0.204854
O      11.60967      5.96301     14.87288        -0.098754     -0.249158     -0.178983
O      11.69901      5.93799      6.42804        -0.423948     -0.423624      0.690628
O      11.63966      5.83344     10.87083         0.552804     -0.104888     -0.347097
O      11.56672      9.78792      2.41861         0.175173     -0.104212      0.854845
O      11.69082      9.74735     14.84456        -0.674570     -0.493790      0.062927
O      11.66995      9.69156      6.52953        -0.041270      0.255975      0.470687
O      11.78437      9.56677     10.87562        -1.298559      0.948133     -0.319710
O       2.00142      3.93780      2.47856        -0.093773      0.371201      0.092337
O       1.86665      3.94649     14.83051         0.669549     -0.259618      0.181993
O       1.86499      0.02389      2.57290        -0.341770      0.236307     -0.032492
O       1.63347      0.01534     14.77804         0.454001      0.876291      0.232917
O      13.54857      3.87019      2.66341        -0.197200      0.275224     -0.145498
O      13.49460      3.86244     14.91706        -0.337903      0.400606     -0.281479
O      13.55416      0.11307      2.37542         0.392488     -0.497971      0.302276
O      13.74848     15.59863     14.77160        -0.542312      0.212260      0.387650
O       1.89603      3.85229      6.88634         0.669473      0.121733     -1.482197
O       1.92531      0.09599      6.55980         0.205636     -1.001692      0.215647
O      13.65104      3.91230      6.61031         0.250449     -0.307251     -0.233499
O      13.48833     15.54341      6.71267         0.747083      0.742119     -0.260015
O       1.97422      3.89852     10.80214        -0.167113      0.421183     -0.193738
O       1.94710     15.51521     10.74334        -0.307296      0.398708      0.546853
O      13.58614      3.82753     10.71659         0.056463      0.564856      0.364222
O      13.56864     15.56457     10.73387         0.018216      0.067264      0.299560
O       1.81554      7.79805      2.61748        -0.689327      0.069547     -0.143981
O       1.90562      7.71240     14.91599        -0.247702      0.444195      0.036428
O      13.61775      7.82555      2.56453        -0.236757     -0.616242     -0.158869
O      13.62124      7.75096     15.09939         0.065589     -1.020748      0.180081
O       1.95875      7.68548      6.43244         0.308727      0.695258      0.869783
O      13.65431      7.83489      6.55268        -0.030894     -0.996916      0.455356
O       1.90934      7.78704     10.74888        -0.064967      0.655936     -0.354415
O      13.70936      7.79769     10.80225        -0.075649     -0.476881     -0.183514
O       1.82124     11.73476      2.35397        -0.140437     -0.082632      0.143010
O       1.81988     11.71830     15.07559         0.565146     -0.551445     -0.203745
O      13.55948     11.81328      2.37697        -0.353854     -0.442275      0.452729
O      13.63175     11.62717     15.14326         0.011619      0.155521     -0.581242
O       1.74044     11.65237      6.62485         0.672270     -0.278385      0.170681
O      13.75722     11.66178      6.55875        -0.206346      0.169885      0.030477
O       2.03922     11.70177     10.75870        -0.124208     -0.311799     -0.046195
O      13.51852     11.61939     10.95594         0.204516      0.199712     -0.715770
O       5.59164      3.91837      2.36764         0.491560      1.020752     -0.167975
O       5.85390      3.87779     14.91063        -0.385894     -1.309335      0.883241
O       5.71419      0.01821      2.51346         0.287318     -0.543149      0.057979
O       5.69037     15.58949     14.94642         0.260231     -0.149527      0.109834
O       5.90598      3.85821      6.57467        -0.209522      1.435184      0.370817
O       5.82193     15.58741      6.58662        -0.068431      0.174859      0.136481
O       5.87149      3.97377     10.53419        -0.609198     -0.424921      0.576931
O       5.96858      0.06604     10.86633        -0.350962     -0.589685     -0.176662
O       5.85288      7.99377      2.46303         0.314973     -2.118773      0.034032
O       5.92879      7.80774     14.90770         0.091822     -0.034652      0.245220
O       5.73768      7.79197      6.61888         0.022119      0.651843      0.104944
O       5.84420      7.77798     10.98179        -0.508240      1.611474     -0.397482
O       5.72966     11.72022      2.57497         0.266679      0.892167      0.658106
O       5.55913     11.60585     14.95883         0.259064      1.619816     -0.103851
O       5.80349     11.71758      6.69063         0.140556     -0.887122     -0.249948
O       5.80361     11.77053     10.83053        -0.177418     -0.455983      0.091596
O       9.63582      3.95716      2.53571        -0.023891      0.179917     -0.258085
O       9.74808      3.82198     14.86800        -0.076433      0.122879     -0.445373
O       9.41459      0.04342      2.29335         0.473595     -0.644577      0.205582
O       9.69144     15.49708     15.00892         0.098870     -0.080135     -0.070970
O       9.65173      3.91696      6.49664         0.015113     -0.207528      0.250094
O       9.73863     15.48074      6.85055         0.110865      1.146067     -0.298134
O       9.70019      3.88560     10.96238         0.015508     -0.029176     -0.677012
O       9.72126     15.54543     10.68630        -0.638144      0.458639      0.356448
O       9.48447      7.85326      2.20117         0.362902      0.316292      0.641969
O       9.56644      7.78082     14.99102         0.008892      0.134771     -0.308963
O       9.86375      7.73129      6.72470        -1.050383      1.159886      0.252241
O       9.77833      7.84444     10.66838        -0.420360     -0.231330      0.027999
O       9.65223     11.76020      2.51786         0.551552     -0.051820      0.542698
O       9.83969     11.69412     15.04349        -0.565784      0.160075     -1.013709
O       9.70533     11.62229      6.62009        -0.300258      0.484051     -0.417786
O       9.80502     11.69782     10.87355        -0.335332     -0.988810     -0.022508
