  # total energy = -7878.51590663 
CRSYTAL
PRIMVEC
    15.6080000000000005    0.0000000000000000    0.0000000000000000
     0.0000000000000000   15.6080000000000005    0.0000000000000000
     0.0000000000000000    0.0000000000000000   16.6239999999999988
PRESSURE
-0.618397 -0.991293 -1.89106 0.141202 -0.264207 0.004784
PRIMCOORD
320 1
Pb       3.73550      3.83557      4.16819         0.570855     -0.068271     -1.233398
Pb       3.74312      3.73317     16.56104         0.199298      0.706424      0.139253
Pb       3.93447     15.44159      4.30960        -0.176773     -0.022486     -0.562461
Pb       4.01480      0.00699      0.05412        -0.209239     -0.178256     -0.057036
Pb       0.00704      3.91183      4.16362        -0.186576      0.042302     -0.670000
Pb      15.60305      3.95665      0.00470        -0.246499     -0.237046     -0.123030
Pb       0.08090     15.58722      4.31489         0.037782     -0.499762     -0.374648
Pb      15.59887     15.56771      0.03636        -0.178789      0.233011     -0.838699
Pb       4.06794      4.03680      8.28428        -0.520371     -0.600741      0.204260
Pb       3.88564     15.55559      8.43117         0.170227     -0.068832     -0.472690
Pb       0.10753      3.94208      8.26530        -0.806299     -0.001265      0.297162
Pb      15.57062      0.03722      8.38767         0.306636     -0.178178     -0.424988
Pb       3.95059      3.83661     12.34948         0.253334      0.133656     -0.361673
Pb       3.95048      0.15516     12.37865        -0.095798     -0.674923     -0.051503
Pb      15.51548      3.86954     12.41098        -0.069528      0.111475     -0.265864
Pb      15.50822     15.50919     12.30486         0.294513     -0.032102      0.242519
Pb       3.96831      7.66748      4.20128        -0.542150      0.238664     -0.794350
Pb       3.87414      7.85403      0.05476        -0.128392     -0.457129     -0.078944
Pb      15.47756      7.71201      4.15188         0.501978      0.464730     -0.366319
Pb       0.00509      7.77706      0.01268         0.011385     -0.009796      0.028161
Pb       3.87851      7.84272      8.28535         0.134521      0.247138     -0.185599
Pb       0.17453      7.86870      8.04188        -0.730119     -1.058372      0.843034
Pb       3.77465      7.78133     12.46568         0.335920      0.309258     -0.238570
Pb       0.05037      7.73458     12.38378        -0.730018      0.238370     -0.073756
Pb       3.99246     11.58387      4.28765        -0.474665      0.456244     -0.431544
Pb       3.89984     11.65259      0.02155         0.203529      0.225924     -0.278644
Pb       0.06726     11.64506      4.23591        -0.024859      0.347899     -0.281839
Pb       0.01572     11.57701     16.55714        -0.119942      0.161554      0.290859
Pb       3.89890     11.51119      8.38480         0.165724      0.355108     -0.174649
Pb       0.00851     11.72750      8.39542        -0.166745      0.185674     -0.820545
Pb       3.77939     11.70954     12.58127         0.070078     -0.120184      0.334617
Pb      15.36491     11.79437     12.48499         0.437036     -0.285093     -0.137019
Pb       7.88885      4.05884      4.12812        -0.730648     -0.673409     -0.147416
Pb       7.76515      3.74216      0.12297         0.113084     -0.037999     -0.667519
Pb       7.91039      0.05313      4.19496        -0.712094      0.370325     -0.242571
Pb       7.80830     15.44520     16.55864         0.188626      0.351372     -0.060820
Pb       7.89527      3.92500      8.09296        -0.114067     -0.248487      0.302224
Pb       7.70342      0.00094      8.33039        -0.115960     -0.216069     -0.478268
Pb       7.81104      4.05416     12.54535        -0.515449     -0.125418     -0.246241
Pb       7.77639      0.03500     12.38692        -0.100780      0.563923      0.120928
Pb       7.81050      7.76985      4.16516        -0.118376     -0.261941     -0.394753
Pb       7.83588      7.60615      0.07636        -0.268138      0.203324     -0.433210
Pb       7.67913      7.75856      8.36941         0.477783      0.078242     -0.236741
Pb       7.66074      7.98929     12.57985        -0.078774     -0.480022     -0.336475
Pb       7.77048     11.62039      4.16148         0.003449      0.387809     -0.602150
Pb       7.90603     11.56447      0.07218        -0.116595      0.278148     -0.532669
Pb       7.82297     11.57863      8.46298        -0.513297      0.422597     -0.128580
Pb       7.72118     11.81930     12.51428        -0.043697     -0.779778      0.360971
Pb      11.55706      3.95180      3.91486         0.192560     -0.217883      1.294281
Pb      11.61281      3.66840     16.48870         0.236931      0.769209      0.430254
Pb      11.95346      0.11623      4.16433        -0.885240     -0.338614      0.366386
Pb      11.78896     15.59169      0.00825         0.024341     -0.133556      0.079626
Pb      11.68952      3.63808      8.10201         0.304803      1.015250      0.557738
Pb      11.82314     15.44327      8.32445        -0.583907      0.170319     -0.304141
Pb      11.52116      3.95605     12.34214         0.749110      0.034407      0.170796
Pb      11.74291      0.07705     12.58055        -0.082879     -0.456307     -0.793465
Pb      11.65598      8.07563      4.18744        -0.149905     -0.870932     -0.184478
Pb      11.75007      7.74131     16.56180        -0.222850     -0.053604      0.340666
Pb      11.71360      7.72324      8.29499         0.035498     -0.300437     -0.073755
Pb      11.89078      7.57305     12.40259        -0.324737      0.819582      0.175627
Pb      11.59016     12.05447      4.09131         0.567005     -0.478007     -0.085982
Pb      11.61922     11.72363      0.06391         0.055316     -0.483286     -0.112929
Pb      11.51504     11.49669      8.14785         0.923716      1.277201      0.434960
Pb      11.66723     11.53247     12.54140         0.010003      0.052179     -0.283386
Ti       1.88135      1.91743      2.21161         0.689829      0.650867      0.030199
Ti       1.85682      1.99581     14.55080        -0.597216     -0.688568      0.066142
Ti       1.85688     13.71825      2.13196         0.672233     -0.478499      1.890190
Ti       1.86031     13.68006     14.65759         0.429205      0.122457     -0.546031
Ti      13.67950      1.96960      2.24637        -0.291800     -0.074392     -0.813162
Ti      13.63128      1.88833     14.55815         0.713633      0.220452      1.416696
Ti      13.68559     13.69551      2.13346        -0.719165      0.082315      0.589892
Ti      13.61590     13.47536     14.66477         0.336417      0.871947      0.381336
Ti       1.94660      1.92500      6.32986         0.342302     -0.145827      0.537414
Ti       1.93491     13.53415      6.43588        -0.342689      0.109780     -0.821287
Ti      13.70345      1.90997      6.33891        -0.560600      0.421232      0.282280
Ti      13.62738     13.58733      6.34854        -0.145183      0.093885     -0.026009
Ti       1.89726      1.85225     10.52081         0.414395      0.082261     -0.930272
Ti       1.99593     13.54501     10.54285        -0.049215      1.321557     -0.851353
Ti      13.54127      1.95965     10.50258         0.174395      0.270380     -1.236428
Ti      13.47635     13.62175     10.45152         0.271582     -0.322920      0.694821
Ti       1.81212      5.92158      2.18014         1.243065     -0.316862      0.007700
Ti       1.98932      5.86112     14.52284         0.313857     -0.352508      2.028374
Ti      13.50879      5.83123      2.25320         0.328787     -0.102044     -0.669807
Ti      13.69127      5.75732     14.68370        -0.778520      0.016253     -0.314303
Ti       2.04764      5.71871      6.29651        -0.969682      1.225447     -0.558992
Ti      13.70580      5.83510      6.23441        -1.079235     -0.425107      0.477565
Ti       1.94002      5.80306     10.46010        -0.372892      0.189897     -0.927302
Ti      13.62160      5.83817     10.37068         0.403601     -0.157381      0.165968
Ti       1.91255      9.85223      2.26912        -0.228326     -1.171301      0.322611
Ti       1.90811      9.68444     14.69465         0.204442      0.751081     -0.540910
Ti      13.54138      9.79536      2.34389         0.387704      0.200961     -1.980951
Ti      13.60900      9.59811     14.78373         0.303719      0.393802     -0.393647
Ti       1.95957      9.70175      6.30501        -0.147202      0.281306     -0.443449
Ti      13.61257      9.69134      6.33730         0.740783      0.714565      0.290805
Ti       1.85602      9.79329     10.46402         0.992768     -0.718233      0.433436
Ti      13.67573      9.72314     10.42364        -0.617314     -0.339404      0.618992
Ti       5.73678      1.93832      2.21167         0.722846      0.508063      0.955678
Ti       5.80891      1.93335     14.68487         0.911601      0.944204     -0.534892
Ti       5.81334     13.65403      2.31751        -0.511811      0.275211     -0.679774
Ti       5.72308     13.63491     14.69656        -0.236504     -0.569445     -0.061544
Ti       5.74258      1.99560      6.26142         0.893120     -1.186145     -1.012453
Ti       5.77469     13.59924      6.36511         0.141310      1.074041     -0.043160
Ti       5.98867      2.08221     10.35279        -1.062086     -0.471234      0.676218
Ti       5.86576     13.70728     10.60347        -1.326603      0.240162     -2.148313
Ti       5.78488      5.90017      2.08759        -1.292418     -1.053275      0.570982
Ti       5.89634      5.83728     14.71921        -0.741826     -0.242960     -1.191827
Ti       5.82788      5.82868      6.30096         0.496048      0.315154     -0.485051
Ti       5.84925      6.02151     10.40719        -0.239762     -0.926788      1.341701
Ti       5.80228      9.80837      2.26086        -0.216124     -0.223074     -0.494295
Ti       5.84057      9.74321     14.72822        -0.312442      0.116849     -0.582402
Ti       5.93772      9.72023      6.37023        -1.352830     -0.096796     -0.942464
Ti       5.77041      9.88174     10.65737        -0.087202     -0.719667     -0.577730
Ti       9.66662      1.88360      2.19338        -0.579241      0.397299     -0.065780
Ti       9.71934      1.87336     14.54466        -1.012385      0.365589      1.197532
Ti       9.67220     13.66629      2.25336         0.428531      0.594735     -0.537489
Ti       9.78600     13.60866     14.62037         0.091921     -0.315522      0.844644
Ti       9.67695      1.84338      6.39450         0.658751     -0.316448     -0.832057
Ti       9.62655     13.65604      6.31455         1.372125      0.412070      0.379145
Ti       9.75500      1.91990     10.51425        -0.485909      0.280953      0.286506
Ti       9.65957     13.62160     10.51418         1.325283      0.570666     -0.316540
Ti       9.66779      5.88495      2.06169         0.534284     -0.298647     -0.116047
Ti       9.74248      5.84473     14.60886         0.280657     -0.487719      1.089467
Ti       9.80438      5.87820      6.34297         0.484672      0.058974     -0.635607
Ti       9.66851      5.92793     10.48165         0.387033      0.096588      0.265772
Ti       9.63933      9.74529      2.11619         1.679303      0.212721     -1.288585
Ti       9.71750      9.65198     14.60047         0.363169      0.543449      0.135001
Ti       9.73647      9.75890      6.36712        -0.196785     -1.167279     -0.312823
Ti       9.80435      9.79579     10.50950         0.035818     -1.543836      0.831795
O       1.75105      2.04717      0.42406         0.492935     -0.300255     -0.449705
O       1.86251      2.03712     12.74179         0.288404     -0.218426      0.546371
O       1.71316     13.85126      0.38496         0.231209     -0.275686     -0.456449
O       1.95616     13.51015     12.84966        -0.206315      0.267112     -0.439775
O      13.52564      2.01868      0.43515         0.172110     -0.139220      0.071052
O      13.56564      1.96253     12.81160        -0.030737     -0.042216     -1.245511
O      13.71194     13.81920      0.34783         0.063104     -0.208569     -0.195464
O      13.42090     13.41983     12.85342         0.236913      0.463882      0.407800
O       1.98714      2.02862      4.50421        -0.525681      0.207419      0.346742
O       2.00006     13.53690      4.60600        -0.666277      0.372210      0.922364
O      13.74184      1.83241      4.52088         0.145005      0.014937      0.653969
O      13.56654     13.81108      4.54547         0.214559     -0.500491      0.548970
O       1.88694      1.74992      8.70866         0.241991      0.459905      0.875385
O       1.91170     13.50643      8.68693        -0.020596      0.483470      0.594951
O      13.49902      1.99972      8.61830         0.155538     -0.609621      1.159989
O      13.54920     13.63998      8.68413         0.555972     -0.224065     -0.296170
O       1.89413      5.86742      0.36393        -0.188726      0.172671      0.304562
O       1.76594      6.05644     12.79422         0.488591     -1.117256     -1.174832
O      13.58300      5.66418      0.43470        -0.299869      0.740667      0.751904
O      13.63770      5.92901     12.87552         0.354841     -0.279899     -0.289644
O       2.07211      5.82815      4.47577        -0.606624     -0.833647      0.874530
O      13.57494      5.86304      4.45368         0.401192      0.064013      0.387898
O       2.01841      5.76502      8.60705         0.117162      0.475355      0.936826
O      13.62045      5.91962      8.63464        -0.316193     -0.134895     -0.708555
O       1.83940      9.58166      0.46169         0.326612      0.329278      0.358454
O       1.92736      9.83438     12.88735        -0.295222     -0.374052      0.489392
O      13.51596      9.63742      0.48896         0.302231      0.261077      0.835976
O      13.93782      9.47825     13.05333        -0.678447      0.850092     -0.805799
O       1.92557      9.85803      4.53136        -0.000842      0.059549     -0.025609
O      13.55165      9.62930      4.56156        -0.109833      0.547869     -0.817726
O       1.99212      9.83436      8.63982        -0.124175     -0.380805      0.399072
O      13.58847      9.75953      8.67543        -0.061322      0.110907     -0.750678
O       5.73040      1.72162      0.41342         0.387207      0.724656     -1.043980
O       6.03797      2.12992     12.90182        -0.928928     -0.775152      0.008580
O       5.61961     13.53723      0.45464         0.485303      0.619996      0.444689
O       5.59330     13.57463     12.91765         0.690836      0.292581     -0.921326
O       5.79593      1.96448      4.43060        -0.412648      0.014375      1.454131
O       5.64517     13.55850      4.49865         0.332729      0.243425      1.159452
O       5.95980      1.90058      8.58893        -0.510245      0.175725     -0.158508
O       5.94440     13.67319      8.69739         0.170749      0.229896      1.064664
O       5.68566      5.94841      0.32430         0.241824      0.007927     -0.008649
O       6.11760      5.85372     12.85574        -0.476666     -0.345229      0.330925
O       5.95748      5.89110      4.51851        -0.224871      0.293733     -0.521055
O       5.59261      6.00226      8.60935         0.446524      0.109942      0.168441
O       5.75319      9.94645      0.46136         0.024512     -0.466896     -0.692983
O       5.80495      9.83390     12.89102         0.209375     -0.304211     -0.252168
O       5.86262      9.76865      4.51309         0.395007      0.392737      1.279314
O       5.67770      9.67018      8.79916         0.036449      0.335320     -0.162708
O       9.63566      2.11127      0.41068         0.246183     -0.424622      0.076405
O       9.69647      1.76591     12.76179         0.171001      0.102655      0.569187
O       9.60773     13.58422      0.45537        -0.027568      0.055632     -0.199629
O       9.94597     13.60703     12.84351        -0.446761      0.154540      0.332648
O       9.71529      1.66895      4.62567        -0.400057      0.287973     -0.065221
O       9.92160     13.77629      4.52379        -1.044592     -0.139606      0.293378
O       9.81504      2.02746      8.77050        -0.323896      0.230845     -2.010802
O       9.39007     13.39615      8.76229         0.600173      0.256343     -0.098334
O       9.77793      5.75376      0.26895        -0.387773      0.311884      0.847687
O       9.52871      5.85232     12.81546         0.236529      0.274440     -0.079893
O       9.43520      6.00481      4.54027         0.484303      0.052424      0.518995
O       9.77635      5.78367      8.73013        -0.235626     -0.053758     -0.950673
O       9.87147      9.89811      0.26089        -0.908047     -0.242437      0.943481
O       9.64751      9.60105     12.78872         0.148027      0.541068      0.359647
O       9.69333      9.56213      4.59979        -0.433603      0.360022     -0.632980
O       9.72989      9.74921      8.69114         0.082972      0.653064     -0.070305
O       3.85872      1.96313      2.35976        -1.394958      0.085734      0.307614
O       3.77454      1.94727     14.94384         0.081818      0.134741     -0.271686
O       3.71842     13.64172      2.58597         0.574753      0.128493     -0.669224
O       3.77101     13.67063     14.88347        -0.172101      0.121204      0.943183
O      15.57903      2.12050      2.48770        -0.280626     -0.553970      0.226917
O      15.49786      2.19648     14.85086         0.200038     -0.379803     -0.060832
O      15.46552     13.74778      2.62435         1.419073      0.142292     -0.164272
O      15.53609     13.60462     14.84151        -0.574422     -0.369917      0.142052
O       3.88891      2.00380      6.54265        -0.147677      0.339631      0.381094
O       3.84575     13.70416      6.63732         0.362607     -0.200134      0.443277
O      15.59589      1.87423      6.78543        -0.691865      0.425267     -0.717828
O       0.03589     13.67679      6.68772        -0.882043      0.545973      0.018373
O       3.91853      1.85174     10.74313         0.055817      0.677656      0.216256
O       3.94391     13.83609     10.58638        -0.673619     -0.530008      0.675350
O      15.57021      1.83371     10.71526        -0.354667      0.256081      0.253270
O      15.46866     13.67679     10.79714         0.773106     -0.593568      0.119421
O       3.83856      6.13707      2.36910         0.638322     -0.458680      0.322983
O       3.93035      5.80900     14.77903        -1.084083      0.081711     -0.054166
O      15.45130      5.73131      2.52099         0.470660      0.516676     -0.001904
O      15.53596      5.70672     14.92114         0.498421      0.647766      0.029199
O       3.92001      5.79168      6.42087        -0.529816     -0.278595      0.823813
O       0.01391      5.83357      6.56004         0.193888     -0.049633     -0.062581
O       3.85047      5.95264     10.77539         0.205724     -0.530144      0.352409
O      15.50316      5.76202     10.60314         1.324202     -0.076439      0.691308
O       3.87189      9.69301      2.57436        -0.828245      0.578132     -0.243680
O       3.86053      9.64887     14.98690        -0.628940      0.007330      0.206990
O      15.54982      9.83278      2.69066        -0.626656     -0.425175     -0.501948
O      15.58105      9.64903     15.12898         0.522295      0.143101      0.105280
O       3.85650      9.78138      6.58943         0.371956      0.186569      0.281166
O      15.60002      9.59454      6.60278        -0.134241      0.687301     -0.234770
O       3.83513      9.78357     10.89845        -0.040777     -0.060218     -0.227119
O       0.01403      9.89726     10.65322        -0.288596     -0.261733      0.261765
O       7.70445      2.14529      2.59121         0.428225     -0.529062     -0.453138
O       7.83578      1.78158     15.02756        -0.635864      0.400342     -0.185215
O       7.74617     13.68337      2.69520        -0.860701     -0.365838     -0.370339
O       7.63589     13.52126     14.85980         0.954976      0.349368      0.066967
O       7.75493      1.94546      6.58181         0.694783     -0.170086      0.335613
O       7.81928     13.75337      6.54109        -1.217162     -0.624236     -0.433913
O       7.76867      1.95843     10.71370         0.821260     -0.217492      0.215229
O       7.75338     13.59220     10.95820         0.488168      0.277257      0.248744
O       7.74957      5.95218      2.29194        -0.583569     -0.437628      0.158752
O       7.68645      5.68456     15.20929         1.694851      0.630460     -0.297489
O       7.61308      5.99750      6.71883         2.211841     -0.248561      0.512418
O       7.73991      5.94103     10.63213         0.198034     -0.127410     -0.303728
O       7.83504      9.95820      2.31697        -1.537423      0.171573      0.701030
O       7.77487      9.85146     14.83388        -0.045491      0.137881      0.572724
O       7.78709      9.78039      6.63970        -0.414862     -0.471412      0.275923
O       7.68608      9.84084     10.70185         0.920454      0.011193      0.331855
O      11.53687      1.91756      2.61418         0.564252      0.256360     -0.567291
O      11.58782      1.84700     15.02187         0.600840     -0.308632     -0.769844
O      11.64676     13.83884      2.51654        -0.229651     -0.527043     -0.439054
O      11.74069     13.64996     15.16014        -0.797083      0.236864     -0.645571
O      11.63635      2.01195      6.52795         0.609596     -0.559053      0.116107
O      11.70625     13.57760      6.66575        -0.313001     -0.555965      0.251717
O      11.65035      1.89827     10.81086         0.655789      0.033694      0.409118
O      11.62767     13.65802     10.57142        -0.735682     -0.124171      0.389311
O      11.50387      5.92715      2.51768         1.130973      0.111079     -0.057685
O      11.61418      5.97828     14.82855        -0.420089     -0.162426     -0.090352
O      11.71014      5.88185      6.43002        -0.412954     -0.069845      0.496999
O      11.67868      5.80965     10.80156        -0.197696      0.247986      0.219719
O      11.52889      9.82726      2.44240         1.339944     -0.213073      0.936091
O      11.69498      9.75348     14.78506        -0.544441     -0.514864      0.231810
O      11.63972      9.71800      6.55850         0.648442      0.178822      0.434420
O      11.75586      9.60720     10.87751        -0.700034      0.854361     -0.275993
O       1.93000      3.97696      2.48833         0.219690     -0.418152      0.250352
O       1.88459      3.97147     14.84680         0.435556     -0.839381      0.071816
O       1.86431      0.02316      2.59518        -0.386020      0.098453     -0.242135
O       1.66050      0.02847     14.83825         0.396348      0.710495      0.024175
O      13.53693      3.85021      2.62159        -0.355913      0.844524     -0.091775
O      13.45744      3.91472     14.90819        -0.141402     -0.672655     -0.143315
O      13.53126      0.07845      2.36697         0.522592     -0.069769      0.411832
O      13.73943     15.59374     14.76641        -0.678787      0.374265      0.326605
O       1.92997      3.84796      6.88863         0.357455      0.360941     -1.390267
O       1.92208      0.14135      6.58801         0.099630     -2.017948      0.056474
O      13.65667      3.91225      6.56187         0.299899     -0.336885     -0.070138
O      13.52135     15.56389      6.68196         0.674689      0.679082     -0.052065
O       1.98516      3.90862     10.79793        -0.179436     -0.159213     -0.058202
O       1.99290     15.51241     10.80395        -0.637427      0.767001      0.329017
O      13.55713      3.84304     10.69475         0.220337      0.034984      0.480102
O      13.52830     15.56775     10.80275         0.119385      0.102803      0.191789
O       1.80511      7.76727      2.64108        -0.467639      0.588673     -0.360311
O       1.93291      7.74302     14.87547        -0.380915      0.529428      0.390640
O      13.55498      7.82982      2.55496         0.059591     -0.418643     -0.195165
O      13.59407      7.72349     15.08533         0.268533     -0.270025      0.350454
O       1.97233      7.71948      6.41772         0.141643      0.214689      0.931182
O      13.67228      7.84018      6.59799        -0.293695     -1.019814      0.223887
O       1.91036      7.80279     10.77292        -0.178700      0.516851     -0.324846
O      13.69351      7.80578     10.75506         0.005460     -0.334206      0.059970
O       1.78653     11.73320      2.41293         0.137314     -0.047596     -0.178397
O       1.84251     11.72460     15.06864         0.291576     -0.797646     -0.059672
O      13.55125     11.80993      2.42794        -0.185844     -0.778988      0.303703
O      13.61529     11.61931     15.11375         0.164848      0.254503     -0.517156
O       1.72549     11.62798      6.61812         0.653069      0.498133      0.231806
O      13.78077     11.67736      6.59323        -0.362773     -0.241378      0.012367
O       2.00786     11.72626     10.75729        -0.081299     -0.574390      0.098756
O      13.54115     11.60724     10.96033         0.124516      0.313680     -0.636758
O       5.62950      3.92514      2.39063         0.433912      1.217531     -0.246880
O       5.89279      3.87019     14.90244        -0.581847     -0.926253      0.850139
O       5.69393      0.03203      2.51053         0.396884     -1.421589      0.140244
O       5.65245      0.03686     14.91753         0.487992     -1.046754      0.028346
O       5.91313      3.90673      6.54490        -0.319555      0.326855      0.560801
O       5.78760      0.00652      6.60123         0.019671     -0.325696     -0.036699
O       5.87587      3.94960     10.53442        -0.640577      0.407395      0.500878
O       5.91712      0.04900     10.84208         0.130346     -0.347829      0.192833
O       5.85759      7.97161      2.46465         0.481229     -1.606964      0.028572
O       5.92109      7.76119     14.88285        -0.032865      0.996086      0.361562
O       5.75093      7.83109      6.61934         0.013768      0.772281      0.083014
O       5.81813      7.82146     10.94567        -0.144953      0.330116     -0.545921
O       5.77166     11.72976      2.56732         0.130974      0.394148      0.374889
O       5.55450     11.62504     14.91994         0.433219      0.848868      0.279299
O       5.74979     11.74605      6.71663         0.460880     -0.886639     -0.274788
O       5.78906     11.79007     10.83435        -0.091942     -0.557155      0.046729
O       9.67470      3.96296      2.54912        -0.282436      0.183723     -0.264875
O       9.73035      3.88637     14.85685        -0.101928     -0.645197     -0.536921
O       9.42277      0.03771      2.27270         0.323876     -0.154724      0.355810
O       9.68815     15.51570     14.98535         0.186587     -0.094391     -0.124327
O       9.72068      3.92061      6.44461        -0.683250     -0.136176      0.649427
O       9.78071     15.47874      6.83138        -0.192521      0.928476     -0.127754
O       9.75719      3.82789     10.92852        -0.565463      1.049975     -0.386410
O       9.72442      0.01115     10.65845        -0.582660     -1.433891      0.517342
O       9.50188      7.89582      2.21333         0.426689     -0.764893      0.515955
O       9.55760      7.77433     15.01276         0.139376      0.266753     -0.312682
O       9.88077      7.72831      6.75879        -1.140953      0.819107     -0.016896
O       9.81199      7.84206     10.61947        -0.570431     -0.594833      0.240483
O       9.64796     11.79911      2.50205         0.388191     -0.507867      0.570110
O       9.83566     11.70076     15.01254        -0.405185      0.308112     -0.726780
O       9.70046     11.62841      6.56081        -0.045064      0.684159      0.099253
O       9.78017     11.68856     10.88213        -0.136261     -0.395971     -0.041591
