  # total energy = -7879.65443940 
CRSYTAL
PRIMVEC
    15.6080000000000005    0.0000000000000000    0.0000000000000000
     0.0000000000000000   15.6080000000000005    0.0000000000000000
     0.0000000000000000    0.0000000000000000   16.6239999999999988
PRESSURE
0.068707 -0.365256 -0.235603 -0.005555 -0.259737 -0.02814
PRIMCOORD
320 1
Pb       4.01651      4.04024      4.24062        -0.360754     -0.118343     -0.322437
Pb       3.96565      4.01455     16.48674        -0.363790     -0.125733      0.523474
Pb       3.91778      0.11317      4.01931        -0.105518     -0.834855      0.127207
Pb       3.83731      0.03777     16.44058         0.320966     -0.832421      1.358887
Pb       0.12382      3.84705      4.19620        -0.405670      0.181824     -0.546457
Pb      15.58772      3.76406     16.61216        -0.120163      0.785947      0.583306
Pb      15.42721      0.03415      4.10491         0.177009      0.086487     -0.011070
Pb      15.50421      0.02861     16.56618         0.334776      0.039027      0.440236
Pb       3.79986      3.80516      8.23591         0.062635      0.902013      0.029095
Pb       3.93032     15.52941      8.07131        -0.532878      0.436046      1.045893
Pb      15.53785      3.87895      8.36984        -0.141443     -0.202736     -0.509562
Pb      15.59812     15.54337      8.23559        -0.629855      0.665093      0.213648
Pb       3.74338      3.88023     12.60039         0.348180      0.346475     -0.351882
Pb       3.90397     15.51472     12.53888        -0.140170      0.456192     -0.505857
Pb       0.00506      4.00219     12.62398        -0.231571     -0.455512     -0.088460
Pb       0.17439     15.55277     12.45505        -0.594202      0.304418      0.233454
Pb       3.84541      7.88525      4.04136        -0.013162     -0.021644      0.777413
Pb       3.98389      7.71447     16.59393        -0.206066      0.697007     -0.347458
Pb       0.10536      7.82849      4.18801        -0.595930     -0.548902     -0.393076
Pb      15.50578      7.74384     16.59554         0.132685     -0.157020     -0.237986
Pb       3.80732      7.72608      8.31832        -0.082675      0.354666     -0.231922
Pb      15.35256      7.67898      8.50500         0.313825      0.216204     -0.529118
Pb       3.99484      7.80965     12.33572        -0.132610     -0.348703      0.918893
Pb      15.43872      7.77018     12.51852         0.431506     -0.008781      0.388792
Pb       3.80184     11.68900      4.02725         0.788584      0.141420      0.264372
Pb       3.94870     11.63881     16.58987         0.035161     -0.062258     -0.076892
Pb      15.56764     11.66467      4.11149        -0.143437      0.313033      0.122715
Pb      15.49884     11.74086     16.54732         0.486017      0.534426     -0.004717
Pb       3.85548     11.86759      8.26229         0.534282     -0.643157     -0.621510
Pb       0.13315     11.64237      8.13157        -0.884841      0.103585      1.133751
Pb       3.99972     11.54538     12.22781        -0.194904      0.007843      1.045624
Pb       0.14082     11.64291     12.42610         0.211849      0.237717      0.364192
Pb       7.82239      3.67910      4.12971        -0.283813      1.146175      0.348480
Pb       7.96384      3.99967     16.56739        -0.458615     -0.315926      0.076452
Pb       7.84390     15.47192      4.14618        -0.420346     -0.019672     -0.250880
Pb       7.83975      0.13888     16.54492        -0.642532     -0.260820      0.272984
Pb       7.61262      3.78861      8.51236         0.484512      0.327955     -0.800782
Pb       7.76646      0.04615      8.17076         0.096420     -0.262162      0.872145
Pb       7.79565      3.56167     12.54521         0.121965      1.053782      0.096312
Pb       7.73034     15.44165     12.44588         0.024125      0.603926     -0.200332
Pb       7.96924      7.84935      4.20188        -0.727108     -0.466282     -0.247498
Pb       7.63667      7.77639     16.60236         0.612062      0.469416      0.119458
Pb       7.78735      7.82626      8.13276        -0.216510     -0.398907      0.411430
Pb       7.81565      7.65037     12.38617         0.165734     -0.266004     -0.149923
Pb       7.87820     11.57680      4.14579        -0.255250      0.708636     -0.587277
Pb       7.76454     11.87931     16.51826        -0.207422     -0.738551      0.826771
Pb       7.76858     11.69084      8.14643        -0.514141      0.118279      0.893439
Pb       7.84450     11.58799     12.33709        -0.212644     -0.033847      0.251065
Pb      11.76651      3.67587      4.24589        -0.214044      0.656379     -0.082052
Pb      11.69327      4.10335      0.31891         0.057436     -0.116552     -1.154070
Pb      11.38397     15.44031      4.11478         0.807357      0.044337     -0.061712
Pb      11.71003     15.58005     16.50839         0.058276     -0.002205      0.827056
Pb      11.66533      4.15226      8.42691        -0.007948     -0.865262     -0.716054
Pb      11.73502      0.23252      8.42394         0.416008     -0.320188     -0.419698
Pb      11.83647      3.76733     12.51058        -0.829131      0.492033      0.093280
Pb      11.54348     15.53889     12.37656         0.569544      0.032649     -0.065225
Pb      11.58038      7.71797      4.15049         0.637683     -0.163111     -0.004980
Pb      11.70771      7.87970      0.04017        -0.396383     -0.334752     -0.306415
Pb      11.64289      7.80363      8.36879         0.167697     -0.117375     -0.510293
Pb      11.48440      8.03048     12.50280         0.180519     -0.841788     -0.129886
Pb      11.86869     11.31592      4.15687        -0.829836      1.251762      0.599466
Pb      11.69197     11.62239     16.60660        -0.176188      0.593038      0.303966
Pb      11.80348     11.91072      8.40475         0.258654     -0.221432      0.215073
Pb      11.84487     11.78756     12.46565        -0.601963      0.163968     -0.217732
Ti       1.95601      1.90873      2.30482        -1.092777      0.235272     -1.345393
Ti       1.89275      1.90403     14.82422        -0.653279      0.919422     -0.347786
Ti       1.81967     13.59209      2.21035         1.087680      1.194592     -0.738975
Ti       1.96376     13.59058     14.64108        -0.165049      0.349560      0.306205
Ti      13.61614      1.92122      2.18722         0.748201     -0.171975      0.108613
Ti      13.50647      1.98470     14.68273         1.381558      0.679285      1.931351
Ti      13.57113     13.58543      2.24189        -0.856330      0.943806     -0.604464
Ti      13.58836     13.74952     14.61594         0.673916     -0.429312      0.381729
Ti       1.86005      2.03010      6.44388        -0.668471     -0.314478     -0.438054
Ti       1.80519     13.72167      6.25109         0.914642      0.554190      0.025711
Ti      13.57499      1.96137      6.29471         0.462924     -0.650191      1.130531
Ti      13.63217     13.61540      6.31345        -1.010987      1.432542     -0.220456
Ti       1.95985      2.00995     10.52974        -0.170491     -0.033959      0.601657
Ti       2.02201     13.72177     10.50309        -0.337061      0.131664      0.958749
Ti      13.74154      1.86730     10.61235         0.018377      0.070754     -0.748552
Ti      13.69937     13.60987     10.52204        -0.471698      1.075579     -0.949738
Ti       1.88755      5.81997      2.10528         0.270412     -0.430645      0.303959
Ti       1.87756      5.89328     14.74171         0.400639     -0.763803      0.915618
Ti      13.66089      5.87851      2.22582         0.124609     -0.752604      0.265397
Ti      13.56871      5.92380     14.75587         0.121125     -0.986789      0.169862
Ti       1.84758      5.98937      6.31084         0.994193     -0.722439      0.769707
Ti      13.62098      5.79389      6.27221        -0.439973      0.233771      0.072793
Ti       1.86035      5.94100     10.66371         1.127644     -0.621467     -1.125106
Ti      13.60624      5.81921     10.60877        -0.486869     -0.310523      1.226354
Ti       1.86403      9.72766      2.16950         0.997760     -0.084486     -0.824379
Ti       1.87019      9.71005     14.73723         1.063888      0.112837     -0.091832
Ti      13.70641      9.69137      2.14646        -0.717017     -0.141531     -0.467769
Ti      13.62316      9.87967     14.64760         0.072213     -1.474009     -0.172026
Ti       1.80639      9.75434      6.32793         2.906035     -0.754794      0.325467
Ti      13.57255      9.74827      6.52715         0.347179     -1.081687     -0.047994
Ti       1.85732      9.69181     10.55431         0.998332     -0.462704     -0.726254
Ti      13.63148      9.73006     10.66656        -0.242339      0.141300     -2.133793
Ti       5.83116      1.95125      2.18440        -0.032642      0.483628      0.642922
Ti       5.77157      1.96419     14.65732         1.017028      0.029052     -0.098349
Ti       5.82118     13.64978      2.12992        -0.230596      0.129395     -0.563318
Ti       5.82390     13.67617     14.54687        -0.121460     -0.461578      1.990968
Ti       5.84034      1.92813      6.31349        -0.286567      0.302570     -0.192853
Ti       5.83457     13.63537      6.31711         0.117302     -0.191549     -0.197059
Ti       5.74110      1.88841     10.52919        -0.107909     -0.242459      0.676195
Ti       5.85110     13.59537     10.48913        -0.041946      0.104717     -0.251543
Ti       5.79427      5.89971      2.32490         0.871657     -1.387922     -0.295421
Ti       5.88771      5.84351     14.68140        -1.036023      0.102498     -1.663129
Ti       5.86582      5.85176      6.36193        -0.747300     -0.358466      0.016801
Ti       5.80511      5.74293     10.56390         0.345511     -0.047385      0.048034
Ti       5.85527      9.70029      2.29661        -0.156930      1.000873     -1.223672
Ti       5.95659      9.78591     14.59642        -1.475920     -0.296209      1.590803
Ti       5.83849      9.72836      6.33900        -1.926868     -0.080381      0.153125
Ti       5.93632      9.64938     10.38909        -1.037656     -0.263278     -0.663137
Ti       9.77782      2.02653      2.22923        -0.303552     -1.070036     -1.647804
Ti       9.73962      1.90582     14.73941        -0.021077      2.166093     -0.541996
Ti       9.65695     13.68019      2.06438         0.882111     -0.513439      0.245783
Ti       9.73200     13.66764     14.65604        -0.058405     -0.438566      0.766021
Ti       9.72447      1.89836      6.44545         0.896495      1.098260      0.228118
Ti       9.76973     13.60361      6.48554         0.081289      0.866669     -1.097883
Ti       9.71145      1.90715     10.53154        -0.143417      0.291583      0.787017
Ti       9.67845     13.61062     10.50224         0.910277      0.360469     -0.997299
Ti       9.72097      5.82839      2.30622        -0.534396     -0.341933     -0.841055
Ti       9.73728      5.92196     14.66749         0.022235     -0.972985     -0.824263
Ti       9.70004      5.78633      6.33072         0.239921     -1.127141      0.914493
Ti       9.78741      5.73190     10.56749        -0.707676      0.059517      1.191599
Ti       9.72493      9.75076      2.20394        -0.205350      0.336025     -2.216602
Ti       9.76941      9.78844     14.67833        -0.781962     -1.147394      0.014864
Ti       9.78787      9.80731      6.37730        -0.066595     -1.174012     -0.187040
Ti       9.72771      9.78201     10.38822         0.245592     -0.593467      0.741661
O       1.87871      1.80129      0.51513         0.161812      0.478554     -0.605663
O       1.92319      1.90908     13.04119        -0.107523     -0.108899     -0.202604
O       2.00441     13.53644      0.43882        -0.264674      0.229883      0.559698
O       1.95555     13.71798     12.83215        -0.079477     -0.263231      0.203913
O      13.69676      1.77811      0.40746        -0.601998      0.204874      0.044079
O      13.82639      2.06981     12.99251        -0.417055     -0.277812     -1.802846
O      13.47477     13.35839      0.44211         0.592479      0.522834      0.086736
O      13.50921     13.72555     12.86219         0.066032     -0.597948     -0.619637
O       1.72097      2.07672      4.67472         0.526397     -0.201794     -0.418171
O       1.82075     13.77080      4.50861        -0.136175     -0.643199     -0.198564
O      13.59464      2.04253      4.51918         0.195731     -0.375848     -0.134640
O      13.75116     13.60560      4.49614        -0.510880     -0.481705      0.558142
O       1.84243      2.06480      8.77683         0.155398     -0.240593     -0.787684
O       1.89719     13.77355      8.75258         0.127480     -0.719357     -0.158408
O      13.73122      1.89748      8.78962        -0.593609     -0.029525      0.992484
O      13.57273     13.75992      8.65923         0.077299     -0.623484      1.456660
O       2.01917      5.72390      0.30728        -0.145333      0.768953      0.882972
O       1.86590      5.78944     12.99787        -0.285594     -0.152627     -1.677417
O      13.59041      5.84919      0.42810         0.222704      0.403095      0.167892
O      13.60957      5.80882     12.98213         0.362068      0.113429     -0.288992
O       1.88317      5.99306      4.52797        -0.129732     -0.175175      0.780135
O      13.61216      5.88690      4.49737        -0.006453     -0.115744     -0.120994
O       1.93307      6.01946      8.84308        -0.588384     -0.102993      0.673042
O      13.56446      5.81146      8.84542         0.179249      0.020181     -0.902730
O       1.79382      9.83777      0.36683        -0.260365     -0.106208      0.976216
O       1.76127      9.84988     12.95633         0.366167     -0.206810      0.011536
O      13.67253      9.78975      0.30121        -0.231841     -0.037193      1.345680
O      13.65278      9.79740     12.77758        -0.293407     -0.009443      0.452068
O       1.99430      9.76277      4.53189        -0.518087     -0.128712      0.289652
O      13.49822      9.72926      4.73049         0.409623     -0.101044     -0.232698
O       1.78695      9.52396      8.77254         0.258353      0.672382      0.077175
O      13.60345      9.75583      8.79580         0.335330     -0.606737      0.047883
O       5.84882      2.04730      0.45288        -0.197397     -0.318051     -0.952069
O       5.84171      1.88182     12.86867        -0.250458     -0.041114      0.401636
O       5.77875     13.68867      0.30515         0.271219     -0.177627      1.329219
O       5.88641     13.52502     12.81337        -0.031220      0.083913     -0.920338
O       5.84835      1.79579      4.51681        -0.149109      0.576056      1.216371
O       5.98309     13.68624      4.54721         0.109067     -0.078423      0.549551
O       5.72470      1.85465      8.74167         0.460322      0.426510     -0.074860
O       5.74015     13.51686      8.71157         0.120029      0.351391      0.212079
O       5.77730      5.76500      0.50622        -0.010465      0.690295      0.090149
O       5.65576      5.85280     12.88471         1.018675      0.211943     -0.030515
O       5.85237      5.85474      4.60055        -0.363000     -0.130026     -0.533867
O       5.95104      5.64160      8.74830        -0.458645      0.057280      0.702008
O       5.76674      9.57874      0.51118         0.338544      0.217774      0.119891
O       5.83239      9.66771     12.84774         0.328521      0.172061     -0.098346
O       5.77187      9.75476      4.52126         0.394902      0.058705      0.234776
O       6.03960      9.72646      8.58189        -0.168375     -0.102151      1.250709
O       9.73984      1.89761      0.35905        -0.114653      0.289436      0.881123
O       9.58564      2.03626     12.95023         0.299031     -0.897323      0.232809
O       9.62237     13.64989      0.28770         0.170222      0.301056     -0.099342
O       9.76106     13.58515     12.89353        -0.236531     -0.028884     -0.528488
O       9.87802      1.94771      4.67984        -0.397947      0.039050     -1.242612
O       9.66284     13.71851      4.66479        -0.112859     -0.331462     -0.031098
O       9.69325      1.81433      8.77138         0.264818      0.416331     -1.048459
O       9.80266     13.51562      8.69080        -0.013843      0.385049      0.733755
O       9.61610      5.75183      0.50062         0.535905      0.104701     -0.409612
O       9.61649      5.75946     12.88936         0.571839      0.739012      0.248820
O       9.86722      5.64783      4.60310        -0.204698      0.851455     -1.401357
O       9.76849      5.72196      8.77945         0.128493      0.169380     -0.125185
O       9.66661      9.68317      0.34452         0.730731     -0.193945      1.711983
O       9.78650      9.67953     12.83377        -0.280132      0.505943      0.583472
O       9.72640      9.53244      4.50855         0.289188      1.161466      0.621489
O       9.58574      9.71714      8.59926         0.446569     -0.215512      0.443182
O       3.77932      1.97741      2.57369         1.489135      0.114567      0.187940
O       3.84779      1.91395     15.03723         0.539708      0.354611     -0.281559
O       3.98948     13.72015      2.58684        -1.034044     -0.378112     -0.075153
O       3.91726     13.70479     14.86900        -0.659196     -0.335348     -0.131008
O      15.54211      1.79549      2.51425        -0.314287      0.757213      0.365151
O      15.60722      2.07216     15.14464        -0.241645     -1.548322     -0.662891
O      15.54876     13.52059      2.37841         0.041574     -0.017363      0.189991
O      15.49096     13.64465     14.91519         0.096824     -0.433550      0.161304
O       3.80477      1.93002      6.71271         0.290355     -0.162629     -0.456942
O       3.87887     13.72841      6.60888        -0.633567     -0.600675     -0.201979
O      15.50059      1.81599      6.70419         0.754337      0.713669      0.121948
O      15.46892     13.69777      6.70460         1.809420     -0.591741     -0.207620
O       3.84723      1.80586     10.90179         0.412997      0.250374     -0.089802
O       3.92347     13.53739     10.77155        -0.614756      0.113880      0.168484
O      15.60555      1.83189     10.81948         0.400363      0.343828      0.346269
O      15.58630     13.62208     10.87695         0.447740     -0.111207     -0.410360
O       3.87526      5.94469      2.71245        -0.123505     -0.140356     -0.915171
O       3.85341      5.84836     14.87871         0.166799     -0.167917      0.895774
O       0.06260      5.88518      2.54210        -1.292724      0.339155     -0.316554
O      15.52439      5.82805     15.09945         0.248365      0.035624     -0.271272
O       3.82401      5.76345      6.69545         0.005546      0.069473     -0.137015
O      15.49954      5.83078      6.62939         0.907930      0.517595      0.293828
O       3.81662      5.91730     10.91139         0.789195     -0.295273     -0.286642
O      15.57012      5.87197     10.91939        -0.069390     -0.006723      0.073564
O       3.86540      9.83480      2.43492        -0.667539     -0.697887      0.255030
O       3.81461      9.70522     15.12726        -0.086651      0.499039     -0.650594
O      15.53537      9.74677      2.68587         0.367901      0.508998     -0.696706
O      15.47843      9.80010     14.94010         0.304886      0.246271      0.063394
O       3.97141      9.70895      6.75911        -0.680152      0.558878     -0.080524
O       0.04167      9.61161      6.63216        -1.374522      0.342539      0.069267
O       3.92786      9.40149     10.63759         0.149378      1.845491      0.174739
O      15.59925      9.80472     10.74397        -0.973265      0.020345      0.712465
O       7.76473      2.07433      2.53233         0.415022     -0.406553     -0.436937
O       7.66420      2.00811     14.97955         1.052644     -0.373693      0.141852
O       7.83272     13.72446      2.48719        -1.169695     -0.141199      0.047490
O       7.74811     13.62856     14.99801         0.917530      0.288116     -0.836141
O       7.80256      1.91623      6.64955        -1.088246     -0.135120      0.117744
O       7.84127     13.71071      6.87096        -0.819143     -0.508685     -0.972526
O       7.75984      1.94158     10.78468        -0.604641     -0.085202      0.072036
O       7.77024     13.55241     10.80649         0.502723      0.013002      0.050564
O       7.83503      5.65878      2.57971        -0.568637      0.584171      0.270754
O       7.76796      5.83815     14.93774         0.161948      0.336114      0.408513
O       7.75404      5.80028      6.56916         0.415384      0.242345      0.447394
O       7.81158      5.77103     10.82440        -0.487649     -0.203030     -0.018560
O       7.86725      9.71073      2.48361        -0.829224     -0.181646      0.710269
O       7.73949      9.77457     15.09956         0.166590     -0.062463     -0.914010
O       7.74233      9.86033      6.54802         0.902402     -0.818934     -0.282837
O       7.79693      9.63463     10.85555         0.818124      0.204448     -0.292807
O      11.69519      1.95043      2.54015        -0.474112     -0.281541     -0.231381
O      11.67716      1.91349     14.93786        -0.728649     -0.526188     -0.194193
O      11.56883     13.83494      2.27810         0.090706     -0.809007      0.824211
O      11.67734     13.68057     14.99892        -1.030508      0.155914     -0.100832
O      11.69897      1.95149      6.70798        -0.215043     -0.003232      0.304991
O      11.68687     13.51130      6.60962         0.213368     -0.058190      0.086799
O      11.59168      1.82649     10.92958         1.394224      0.193464     -0.192242
O      11.68264     13.71212     10.81198        -0.488802     -0.385739      0.094699
O      11.73869      5.87641      2.35190         0.021138     -0.081574      0.565415
O      11.64097      5.93159     15.05339         0.179309      0.262149      0.271513
O      11.69743      5.72476      6.64374        -0.209688      0.294090      0.522339
O      11.72723      5.71414     10.91745        -0.351021      0.155899     -0.261709
O      11.69160      9.69375      2.57515         0.103505     -0.342719     -0.669417
O      11.64334      9.57805     14.97374         0.595382      0.296571     -0.186496
O      11.70781      9.78495      6.73272        -1.177042      0.024112      0.022972
O      11.65011      9.75246     10.74620        -0.249864     -0.247867      0.174531
O       1.84147      3.98107      2.51327         0.337720     -0.701616      0.223473
O       1.88090      3.88802     15.05434         0.418407     -0.554379     -0.229162
O       1.90547      0.05677      2.58510        -0.004301     -1.570797      0.174283
O       1.88475     15.48430     15.13219        -0.212080      1.004035     -0.649383
O      13.65817      3.83599      2.43063        -0.109166      0.749491     -0.079351
O      13.55731      3.85497     15.15560        -0.075886      0.548828     -0.291615
O      13.58376     15.47939      2.49398         0.381737      0.238147      0.057677
O      13.67327     15.60505     14.95096        -0.401905      0.175569      0.199666
O       1.82340      3.96382      6.74869        -0.104010     -0.492816     -0.139414
O       1.87678     15.57570      6.67228        -0.050638      0.187184     -0.045117
O      13.65093      3.84976      6.70711         0.143427      0.576141     -0.092254
O      13.60682     15.59609      6.56836        -0.325843     -0.519918      0.078905
O       2.00541      3.90854     10.88152        -0.447157     -0.066202      0.264552
O       2.02640      0.06742     10.95493        -0.429898     -1.806060     -0.560806
O      13.71922      3.91081     10.98423        -0.080856     -0.820415     -0.445630
O      13.62012     15.58334     10.91129         0.063750      0.068457     -0.127120
O       1.82980      7.82997      2.42281         0.405386      0.537213      0.082692
O       1.88534      7.79020     14.92081        -0.527370      0.700697      0.462431
O      13.70912      7.84005      2.49466        -0.145622     -0.105531     -0.180554
O      13.71480      7.80952     15.03565        -0.424184      0.262791     -0.156685
O       2.07640      7.83715      6.65019        -0.727466     -0.212494     -0.421883
O      13.52366      7.70649      6.78583         0.274243      0.654601      0.115078
O       1.88516      7.82139     11.07216        -0.659924     -0.175805     -0.151990
O      13.65553      7.77927     10.84504         0.041482      0.372394      0.010646
O       1.95285     11.70125      2.56421        -0.453075     -0.096084      0.006524
O       1.80379     11.79655     15.00218         0.355276     -1.278263     -0.177652
O      13.53149     11.59723      2.63302         0.513466      0.110781     -0.389103
O      13.35113     11.68595     14.83660         0.657875      0.064006      0.061184
O       1.88294     11.73773      6.60304         0.071455     -0.172477      0.053871
O      13.72942     11.62972      6.74680         0.060543      0.601852     -0.175283
O       2.05061     11.60641     10.96575        -0.515062      0.688064     -1.147731
O      13.45326     11.69309     10.70490         0.711994      0.641344      0.468033
O       5.70187      3.92798      2.62044         0.174010     -0.203281      0.186139
O       5.92101      3.97966     14.94608        -0.999896     -1.251096      0.050668
O       5.81419      0.03786      2.49349         0.268189     -0.049680     -0.243628
O       5.83269     15.59620     14.90004         0.057086      0.429724     -0.151290
O       5.73734      3.81387      6.59202         0.391064     -0.293681      0.189504
O       5.83524     15.56568      6.77032         0.205062      0.494483     -0.687512
O       5.68527      3.74163     10.96321         0.302359      1.121832     -0.827191
O       5.86670     15.43860     10.95341        -0.188322      0.948035     -0.491479
O       5.94175      7.80334      2.61889        -0.223202     -0.462991     -0.070349
O       5.75028      7.78657     15.06703         0.705751      0.351202     -0.340575
O       5.80416      7.73308      6.66793         0.543091      0.552836      0.003436
O       5.88488      7.73126     10.73330         0.409171     -0.526432      0.063112
O       5.80248     11.67781      2.44078         0.615759      0.324766      0.258449
O       5.86475     11.72466     15.02360        -0.456571     -0.757388     -0.556411
O       5.73877     11.77414      6.67484         0.538757     -0.619010     -0.223560
O       5.89623     11.58756     10.84082        -0.206280     -0.254176     -0.494128
O       9.83909      3.86637      2.58569         0.045674     -0.229352     -0.126030
O       9.82202      3.90648     14.98246        -0.579549     -0.076282      0.467132
O       9.62438      0.09392      2.45371         0.185449     -0.575833      0.461865
O       9.68689      0.01113     14.87204        -0.061977     -0.894568      0.296577
O       9.68564      3.88728      6.71925         0.083433     -0.441731      0.347073
O       9.76427     15.57207      6.59640         0.045952     -0.003740      0.818722
O       9.82755      3.78844     11.00013        -0.420560      0.685381     -0.996927
O       9.66472     15.57658     10.79546        -0.171325     -0.996870      0.490199
O       9.76096      7.70464      2.45017        -0.145031      0.881339      0.753510
O       9.60158      7.83699     14.89592         0.229991     -0.526582      0.277072
O       9.78239      7.76884      6.52917        -0.263027      0.227337      0.659994
O       9.88115      7.72554     10.79855        -0.643026      0.403193     -0.117211
O       9.61440     11.71035      2.40346         0.625637     -0.314884      0.284983
O       9.81247     11.60857     15.07900        -0.361317      1.472986     -0.768301
O       9.64169     11.61849      6.69274         0.472625      0.614303     -0.653353
O       9.72250     11.68312     10.79623        -0.057069     -0.508259     -0.117024
