  # total energy = -7873.94445549 
CRSYTAL
PRIMVEC
    15.6080000000000005    0.0000000000000000    0.0000000000000000
     0.0000000000000000   15.6080000000000005    0.0000000000000000
     0.0000000000000000    0.0000000000000000   16.6239999999999988
PRESSURE
-0.077825 0.562303 -0.828909 -0.068851 -0.02218 0.033245
PRIMCOORD
320 1
Pb       4.02815      3.99160      4.13926        -0.255234     -0.818199     -0.120779
Pb       4.10126      4.08811      0.16677        -0.568211     -0.229063     -0.574755
Pb       3.86842      0.03403      3.99874         0.229609      0.127759     -0.558089
Pb       3.75905     15.57330     16.60954         0.167125     -0.085620     -0.039964
Pb       0.10216      3.83185      4.19533        -0.221317     -0.262391     -0.395668
Pb      15.48535      3.80006     16.59990         0.220115      0.065568      0.403055
Pb      15.56030     15.54065      4.00909        -0.242815     -0.282176      0.064971
Pb      15.48850     15.56507     16.55393         0.149479     -0.208205      0.496751
Pb       3.62398      3.74689      8.35292         0.743615      0.701632     -0.007441
Pb       3.89108      0.08578      8.27274        -0.084497     -0.630772      0.417495
Pb      15.53517      3.77729      8.29518        -0.695043      0.322805     -0.064674
Pb       0.14493     15.58501      8.21353        -1.290426     -0.344617     -0.270921
Pb       3.89869      3.93531     12.40423        -0.603024      0.062351     -0.021342
Pb       3.83685     15.40034     12.30316        -0.361545      0.226526      1.061976
Pb      15.59495      3.79696     12.44744         0.259344      0.458444     -0.208182
Pb      15.57715      0.32346     12.64371        -0.067893     -0.882540     -0.268266
Pb       3.79363      7.87463      4.31502         0.022763     -0.006054     -0.423115
Pb       3.81056      7.74393     16.61350         0.367218     -0.050899     -0.449284
Pb       0.24717      7.91089      4.27178        -0.990450      0.256403     -0.550216
Pb       0.04279      7.73127      0.00008        -0.100387      0.405278      0.342453
Pb       4.05106      7.65551      8.14252        -0.853011      0.778827      0.076459
Pb      15.35995      7.73846      8.62285        -0.034894      0.196137     -0.573430
Pb       3.92651      7.89765     12.42135        -0.369671     -0.569514      0.269917
Pb      15.57712      7.99765     12.61904         0.218494     -0.366384     -0.264884
Pb       3.81759     11.67074      4.06907        -0.048942      0.324577      0.230521
Pb       3.91872     11.62524     16.45627        -0.415285      0.402311     -0.337242
Pb      15.58181     11.67424      4.04496        -0.227679     -0.265505      0.625882
Pb      15.53316     11.85698     16.56321         0.333877     -0.463285     -0.090956
Pb       3.84049     11.63443      8.03564        -0.080815      0.367685      0.820661
Pb      15.58332     11.60132      8.32568        -0.703755      0.297259     -0.362473
Pb       4.05639     11.67367     12.26684        -0.711872     -0.189321      1.171776
Pb       0.24498     11.52807     12.30094        -1.288043      0.614685      0.608018
Pb       7.85327      3.69986      4.19968        -0.255721      0.340950      0.701681
Pb       7.83977      4.00584      0.11940        -0.326657      0.093588     -0.579080
Pb       7.75576     15.40818      3.98520         0.370646      0.748186      0.899910
Pb       7.90648      0.19206      0.13159        -0.263817     -0.594858     -0.614616
Pb       7.54968      3.97500      8.36788         0.670505     -0.312714     -0.535339
Pb       7.89525     15.50919      8.33307        -0.068443      0.495580     -0.393353
Pb       7.63963      3.74520     12.41920         0.855450      0.675453     -0.297290
Pb       7.63224     15.56348     12.57082         0.492277     -0.623840     -0.035077
Pb       7.68664      7.86164      4.15585         0.885904     -0.092881      0.423430
Pb       7.80484      8.03227     16.57884        -0.526010     -0.556123      0.156857
Pb       7.82769      7.75017      8.25150        -0.102093      0.221112      0.066067
Pb       7.82120      7.54291     12.36239         0.182404      0.997063      0.045210
Pb       8.01514     11.69642      4.33942        -0.169815      0.374754     -0.393556
Pb       7.61547     11.69945      0.00335         0.247701     -0.412959     -0.011638
Pb       7.60551     11.74526      8.08297         0.238111      0.242007      0.756407
Pb       7.66486     11.45408     12.39346         0.664545      0.517354      0.280129
Pb      11.82281      3.90391      4.41190        -0.020077      0.182980     -0.406015
Pb      11.83404      4.09604      0.15905         0.107715     -0.133711      0.009567
Pb      11.52011     15.45772      4.19004        -0.212122     -0.408119     -0.204909
Pb      11.55283     15.49697      0.09838         0.781336      0.204677     -0.921765
Pb      11.76434      4.14248      8.43565        -0.007823     -0.245475      0.133455
Pb      11.62012      0.15036      8.25517        -0.009749     -0.395380      0.514261
Pb      11.85053      3.81387     12.66361         0.295046      0.012287     -0.980025
Pb      11.86378     15.53363     12.42494        -0.637101      0.204175      0.380653
Pb      11.73909      7.45332      4.03680         0.282940      1.601357      0.772315
Pb      11.38640      7.77967      0.03330         0.270614      0.243059     -0.241560
Pb      11.52043      7.96316      8.25440         0.798864     -0.417332      0.129327
Pb      11.46885      7.92046     12.70741         0.428412      0.322745     -0.620308
Pb      11.64641     11.24665      4.29318         0.477075      0.731418     -0.274511
Pb      11.81848     11.80609     16.50107        -0.870150     -0.435997      0.313781
Pb      12.06150     12.00111      8.47299        -0.566745     -1.274735     -0.276380
Pb      11.59729     11.91595     12.40499         0.341614     -0.438183     -0.675395
Ti       1.75817      1.81764      2.12897         1.398255     -0.281681     -0.734091
Ti       1.97040      1.94808     14.75461         0.541442     -0.680879      0.616104
Ti       1.89266     13.49927      2.14076         0.110372      1.966509      0.697477
Ti       1.88505     13.65831     14.54228         1.402364     -0.638308     -0.258958
Ti      13.49847      1.91907      2.20505         0.695383     -0.449482     -1.176732
Ti      13.53136      1.97725     14.88253        -0.318657     -1.700424     -0.307589
Ti      13.51973     13.56551      2.24680         0.408146      0.264666     -0.494822
Ti      13.64773     13.58398     14.66255        -0.297277      2.033523     -1.069690
Ti       1.88961      1.94614      6.33244        -0.462753      0.534369     -1.607570
Ti       1.93366     13.80210      6.08886        -0.804997     -2.101055      0.689455
Ti      13.59626      1.86803      6.26412         1.436668     -0.480754     -0.001760
Ti      13.69678     13.64880      6.17621        -0.002196     -0.367524      0.443172
Ti       1.94659      1.90841     10.49627        -0.317502      0.356878      2.629284
Ti       1.97441     13.49330     10.39269        -0.640703      0.560102      2.032413
Ti      13.57960      1.90631     10.46283         0.503197      0.835017     -0.405853
Ti      13.73897     13.71544     10.53042         0.652619     -1.383059      0.760840
Ti       2.05721      5.70744      2.22242        -0.452896      0.462198     -0.305629
Ti       1.79545      5.69609     14.78268         1.693521      0.881897     -0.592650
Ti      13.83594      5.82800      2.19049        -0.357103      1.084901     -0.162323
Ti      13.53644      5.97763     14.67019         0.711547     -0.696053     -1.271425
Ti       1.87296      5.89894      6.28358         0.230677      0.548536      1.133605
Ti      13.68653      5.85109      6.31062        -0.611922      0.417498     -0.006884
Ti       2.08936      5.88787     10.41019        -0.963557     -0.581997      0.059594
Ti      13.84425      5.78230     10.63528        -1.271734     -0.039340     -0.423788
Ti       1.92585      9.71587      2.14849        -0.827395     -0.494974     -0.665447
Ti       1.95156      9.63868     14.59945        -0.397753      0.919155      0.218446
Ti      13.63309      9.69968      2.15510         0.330148     -0.493295      1.386541
Ti      13.61786      9.76327     14.60935         0.242600      0.001533     -0.635764
Ti       1.78833      9.80226      6.44574         0.744644     -0.697050     -0.578344
Ti      13.65420      9.63354      6.26881        -0.709854      1.334974      1.133759
Ti       2.02331      9.66882     10.41082        -0.355928     -0.725093      1.333660
Ti      13.48983      9.60338     10.66907         0.051064      1.756564     -0.755860
Ti       5.82146      2.01701      2.10902        -0.685935     -0.943934      0.198576
Ti       5.90921      2.04352     14.59886        -1.337592     -0.714353      1.914538
Ti       5.83568     13.54826      2.16440        -0.473660      1.110085     -1.206067
Ti       5.95471     13.80692     14.85009        -1.476079     -1.555057     -0.863020
Ti       5.82192      1.86335      6.42090         1.337476      1.213728     -0.823902
Ti       5.71870     13.82301      6.34125         0.934452     -1.711954      0.924013
Ti       5.86233      1.86418     10.52649        -1.562817     -0.057961     -1.148734
Ti       5.91808     13.58349     10.50570        -0.574312     -0.277233     -1.803662
Ti       6.01013      5.86087      2.37214        -0.641176      0.106429     -0.516338
Ti       5.88719      5.80201     14.62387        -1.047342      1.119946     -0.190455
Ti       5.77104      5.80083      6.25730         0.575151      0.009394     -0.140197
Ti       5.93570      5.88156     10.52987        -0.516746     -0.368757      0.006245
Ti       5.74873      9.77041      2.27666         0.551172     -0.317054     -1.599895
Ti       5.79309      9.67990     14.63977         0.422358      0.422382      0.916392
Ti       5.80222      9.74798      6.24341        -0.658149      0.589035      1.527329
Ti       5.88738      9.64441     10.42844        -0.113615      0.340284     -1.847125
Ti       9.76994      2.05290      2.17440        -0.442373     -1.328669      0.784130
Ti       9.70761      2.07189     14.64703         0.852783     -1.654595     -0.810194
Ti       9.74932     13.52886      2.16838         0.024253     -0.053129      0.257066
Ti       9.66264     13.66665     14.63981         0.498561      0.507934     -0.437121
Ti       9.82789      1.85128      6.30377        -1.685977      0.399429      1.147177
Ti       9.85822     13.58645      6.49299        -0.820941      1.127020     -1.112195
Ti       9.61621      1.91586     10.57705         2.099603      0.327292     -1.577616
Ti       9.65199     13.64412     10.38839         1.587391     -0.082228     -0.061115
Ti       9.76018      5.77230      2.29059         0.143681      1.941370      0.726557
Ti       9.64635      5.86593     14.48030         0.786553      0.367124      0.793672
Ti       9.68327      5.75913      6.33385         0.282911     -0.637969      0.645313
Ti       9.93181      5.76675     10.47264        -0.567216      0.232524     -1.145208
Ti       9.62723      9.64265      2.28147         0.422954      0.471523     -0.088968
Ti       9.71552      9.88907     14.62572        -0.572304     -0.817894      0.260653
Ti       9.69025      9.71560      6.39001         1.056593      0.617319     -0.473852
Ti       9.73059      9.74589     10.31666         0.760953      0.112908     -0.047529
O       1.92773      1.55236      0.34196        -0.186595      0.728415      1.053678
O       1.76958      1.99496     12.97223         0.135874      0.215027     -0.441070
O       1.69574     13.60748      0.40104         0.458915     -0.121064     -0.988414
O       2.05956     13.65121     12.72897        -0.332884     -0.006329      0.977816
O      13.35205      1.88589      0.30573         0.586875      0.683461      1.154053
O      13.62083      1.86436     13.03518         0.270548     -0.030758     -0.235376
O      13.50041     13.40123      0.35080         0.486916     -0.166026      0.811636
O      13.67800     13.84914     12.85714        -0.358418     -0.591758      0.195382
O       1.85699      1.95417      4.53859        -0.037471      0.173789     -0.105554
O       1.99386     13.64104      4.33236         0.119237     -0.049244      0.819533
O      13.70687      2.00962      4.44514        -0.392613     -0.185026     -0.530396
O      13.50602     13.69551      4.42070         0.331465     -0.170833     -0.183587
O       1.86230      2.10787      8.77746        -0.012785     -0.349452     -2.124123
O       1.86832     13.68199      8.67865        -0.091292     -0.111351     -0.678714
O      13.67171      1.95674      8.64892        -0.215028     -0.228035      0.657794
O      13.79287     13.52029      8.74387         0.244304      0.683915     -0.277543
O       2.11864      5.90722      0.44986        -0.260176      0.038687     -0.252453
O       1.92710      5.69126     13.02234        -0.267246     -0.114608      0.461659
O      13.55080      6.12633      0.39676        -0.092331     -1.131092     -0.578116
O      13.65903      5.67652     12.79404        -0.141044      0.389942      1.197797
O       1.76912      5.81086      4.49032         0.340652     -0.523162     -0.314534
O      13.59039      5.73093      4.46924         0.552508     -0.458494      0.659787
O       2.25619      5.78983      8.61657        -0.652218     -0.052495     -0.201937
O      13.70375      5.71623      8.77940        -0.010028      0.398879     -0.649462
O       1.91124      9.66179      0.31808        -0.168402      0.096823      0.912477
O       2.03798      9.49744     12.80263        -0.327008      0.213546     -0.214764
O      13.83311      9.70894      0.38990        -0.725681     -0.105678     -0.379337
O      13.60849      9.78731     12.80243        -0.394553     -0.556381      0.429554
O       1.78399      9.82781      4.63039         0.442342     -0.613297     -0.267204
O      13.83518      9.77464      4.55737        -0.345590      0.119336     -0.930653
O       1.89144      9.86757      8.70779        -0.137245     -0.446444     -1.695829
O      13.51441      9.68231      8.81709         0.367587     -0.361849      0.006691
O       5.84253      2.13932      0.30821         0.512371     -0.504487      0.629211
O       5.82139      2.01382     12.83473         0.728395     -0.276578     -0.958216
O       5.98120     13.67739      0.29476        -0.333223     -0.513563      1.356000
O       5.89854     13.66838     13.02915         0.196218     -0.343657     -0.816772
O       5.77772      1.79448      4.63748        -0.247078      0.587712      0.183728
O       5.75658     13.68182      4.61007        -0.081819     -0.027473     -1.079392
O       5.79518      1.77191      8.71468        -0.179677      0.445508      0.619388
O       5.82213     13.64095      8.70678        -0.259708      0.240518      0.740604
O       5.94198      5.73475      0.54463         0.252600      0.157045     -0.136697
O       5.91908      5.75648     12.78360         0.153055      0.077724      0.606782
O       5.77864      5.65768      4.48716         0.410146      0.263810      0.041458
O       5.81685      5.89081      8.73810         0.170176      0.044993     -0.344124
O       5.85726      9.66029      0.38991        -0.679601     -0.038939      1.243367
O       5.91970      9.75054     12.84174         0.099431     -0.311124     -0.074987
O       5.71586      9.86379      4.49559         0.134593     -0.160832     -1.094438
O       5.84874      9.64987      8.61398        -0.179112     -0.269109      0.998031
O       9.54230      2.03067      0.38259         0.650010      0.283172      0.420318
O       9.70182      1.82858     12.83595        -0.460777      0.473200     -0.131762
O       9.67503     13.59195      0.34534         0.276682     -0.008662      1.130471
O       9.70539     13.62647     12.78538        -0.145434      0.063021      0.713520
O       9.85654      1.72682      4.56353        -0.350239      0.602583     -1.254592
O       9.61318     13.84012      4.61974         0.457900     -0.570989      0.225968
O      10.03855      1.97064      8.73738        -0.777249     -0.177907      0.932839
O       9.79510     13.68462      8.55021        -0.133882     -0.357284      0.909076
O       9.69229      5.85329      0.52268         0.044999     -0.218670     -1.155548
O       9.81498      5.88457     12.70850        -0.239059      0.144181     -0.392754
O       9.82400      5.85210      4.56099         0.391602      0.058181      0.375339
O       9.89993      5.69847      8.55934        -0.585710     -0.099362      0.530565
O       9.70609      9.58282      0.48415         0.049157      0.290679     -0.197279
O       9.57672      9.79894     12.84673         0.280708     -0.343375     -0.491871
O       9.54806      9.77183      4.49650         0.177383      0.156008      0.936385
O       9.89090      9.72267      8.49801        -0.389041      0.232438      0.363034
O       3.92264      1.82031      2.40531         0.319611      0.150588      0.102458
O       3.90754      1.99549     14.85440         0.077573     -0.721762      0.253628
O       3.86761     13.50108      2.32585         0.512001      0.599642      0.086856
O       3.83404     13.77855     15.04689         0.122953     -0.265952      0.051967
O      15.47367      1.82954      2.37681         0.842749      0.267631     -0.081926
O      15.52411      1.88683     15.16926        -0.398411      0.300993     -0.608538
O      15.48936     13.57372      2.55584        -0.033532     -0.128918     -0.497808
O      15.57465     13.61446     14.92169         0.047620     -0.634581     -0.004482
O       3.78889      2.03905      6.76149         0.194477     -0.416400     -0.185261
O       3.74524     13.65523      6.68511         0.850193      0.071834     -0.341640
O      15.57719      1.79190      6.61586         0.666941      0.382987      0.407208
O      15.60322     13.67614      6.33387         0.816869      0.138268      0.514623
O       3.90501      1.87973     10.82201        -0.108954      0.538461     -0.220269
O       3.97401     13.46621     10.81446        -0.799101      0.564553     -0.429267
O      15.54438      1.95320     10.86230         0.853595      0.076621     -0.044193
O       0.08500     13.42867     10.83759         0.254106      0.480015     -0.653520
O       3.95690      5.77017      2.52500        -0.286779     -0.155320      0.299382
O       3.88293      5.88465     14.97969         0.577294     -0.411978      0.231737
O       0.12475      5.68888      2.21966        -0.666415      0.004311      0.629027
O      15.52819      5.88332     15.09008        -0.246413     -0.862863     -0.041784
O       3.90530      5.94007      6.33722        -0.840618     -0.622578      0.582695
O      15.55346      6.09870      6.72386         0.125406     -0.851283     -0.277705
O       3.88990      5.88794     10.88486         1.398879     -0.541708      0.107318
O       0.05712      5.81507     10.59208         0.861399      0.378000      0.434269
O       3.77866      9.79370      2.54903         0.838759     -0.393729      0.067284
O       3.79870      9.58436     14.91815         1.474733     -0.056533      0.087783
O       0.04432      9.72663      2.64066        -0.190550      0.228036     -1.057635
O      15.51488      9.72925     14.64412         0.337766     -0.203010      0.704179
O       3.81517      9.73502      6.65826         0.233071      0.039240     -0.285944
O      15.51458      9.50802      6.76083         0.559237      0.438346      0.343680
O       3.97042      9.65309     10.79512        -0.246423      0.049588     -0.186889
O       0.02425      9.63818     10.88826         0.349570     -0.198918     -0.406270
O       7.76850      2.03441      2.57282         0.768656     -0.625425     -0.766665
O       7.80794      2.04726     14.93042        -0.608340     -0.000154      0.009262
O       7.75960     13.56321      2.62749         0.245492     -0.406398     -0.861017
O       7.77310     13.39549     15.01202         0.751340      0.784476     -0.475972
O       7.77006      1.78961      6.65557        -0.634087      0.598002      0.120601
O       7.68110     13.84802      6.75168        -0.718980     -0.961386     -0.687802
O       7.72381      1.70356     10.66503         0.149573      0.264037      0.737277
O       7.85393     13.53412     10.60658        -1.299629     -0.031872      0.631980
O       7.88009      5.81945      2.87780        -0.546954     -0.264533     -1.172906
O       7.81933      5.90381     14.85655        -0.588868     -0.494111     -0.000001
O       7.78289      5.88808      6.65245        -0.064497     -0.058013     -0.052469
O       7.86755      5.89295     10.75023        -1.517089     -0.201494     -0.215090
O       7.62791      9.68285      2.46505         1.202268      0.050960      0.407643
O       7.76020      9.75248     15.04692        -0.260552      0.338771     -0.391664
O       7.70582      9.83229      6.62012         0.431164     -0.410273     -0.287409
O       7.88081      9.57062     10.49192        -0.977849      0.302902      0.933595
O      11.66487      1.99504      2.34319        -1.187379      0.217768      0.561606
O      11.59338      1.72128     14.90952        -0.162405      0.947686      0.184727
O      11.65789     13.57223      2.57060        -1.112369     -0.133903     -0.671012
O      11.66731     13.70445     14.88632        -0.687080     -0.820308      0.193766
O      11.76215      1.64567      6.41170        -0.595602      0.845464      0.396890
O      11.69661     13.61899      6.59603         0.700414      0.265368      0.093692
O      11.74273      2.02563     10.93740        -0.128922     -0.467507     -0.266306
O      11.77932     13.69368     10.74409        -0.077151     -0.397839      0.101357
O      11.74806      5.88245      2.42341        -0.688158     -0.595644     -0.136612
O      11.67375      5.97643     14.78167        -0.890765     -0.706859      0.741598
O      11.79288      5.72606      6.63660        -0.564783     -0.120055     -0.474582
O      11.72148      5.48301     10.60028        -0.189490      0.235174      0.724123
O      11.67323      9.58983      2.65589         0.283722     -0.150180     -0.815108
O      11.59299      9.69731     14.89650         0.882067     -0.093903      0.112614
O      11.68088      9.83685      6.41964        -1.205330     -0.091227      0.079665
O      11.61727      9.57948     10.87105        -0.097681      0.177553      0.176569
O       2.07383      3.70876      2.35049        -0.657784      0.844239      0.232132
O       1.90988      3.73461     15.39920        -0.300450      1.585127     -1.093512
O       1.85801     15.47478      2.56288         0.318462      1.229519     -0.280657
O       1.77645     15.55194     14.89562         0.438417      0.229674     -0.146966
O      13.66668      3.88792      2.28783        -0.361040     -0.390466      0.125758
O      13.52346      3.84421     15.01127        -0.187775      0.914644      0.299572
O      13.50220     15.48453      2.17260         0.193594      0.859742      0.890274
O      13.60846     15.43779     15.19741        -0.109396      0.772264     -0.576166
O       1.75075      3.88608      6.61234         0.322622      0.546988     -0.000402
O       1.96099      0.01294      6.41739         0.033896      0.264997      0.863508
O      13.72829      3.75242      6.53630         0.057813      1.238484     -0.002859
O      13.74244     15.51615      6.55865        -0.239661      0.334173      0.340635
O       1.96909      3.98071     10.92613         0.215245     -1.008436     -0.505676
O       1.99453      0.07933     10.71863        -0.205211     -1.206931     -0.168993
O      13.77015      3.87481     10.85269        -0.172050     -1.086028      0.103055
O      13.79843     15.59110     10.76119        -0.407294      0.443545     -0.035198
O       1.98356      7.80281      2.60314        -0.002820     -0.267334     -0.269649
O       1.78986      7.74282     14.94493         0.205342     -0.432717      0.338933
O      13.82935      7.71241      2.61160        -0.261428      0.361987     -0.246536
O      13.52477      7.78561     14.68407         0.582059      0.617594      0.368092
O       2.02587      7.77485      6.50840        -0.115096     -0.478377      0.039141
O      13.38963      7.83368      6.42337         0.603311     -2.158676      0.613404
O       2.05428      7.75515     10.63807        -0.337636      0.084793      0.258982
O      13.61595      7.72493     10.86023         0.267449     -0.636019      0.205337
O       1.94824     11.72240      2.49330        -0.469685     -2.076998     -0.103253
O       2.07450     11.63518     14.75797        -0.650660      0.205193      0.490820
O      13.54050     11.55829      2.56786         0.308475      0.255701     -0.522534
O      13.58642     11.67873     14.91942        -0.121135     -0.469896      0.035492
O       1.81987     11.64746      6.50028         0.057549      1.071139      0.724242
O      13.67029     11.70639      6.67674         0.397546      0.134229      0.003042
O       2.03874     11.54002     10.80788         0.126679      1.233899     -0.274783
O      13.64169     11.59780     10.81844        -0.326640      0.744941      0.049801
O       5.95665      3.88931      2.50439        -0.621648     -0.812359      0.300972
O       5.80917      3.93823     14.96012         0.534870      0.070855     -0.199200
O       5.84093     15.48920      2.39407         0.100640      0.511340      0.002057
O       6.08505      0.01110     14.93840        -0.135882      1.459312      0.007671
O       5.82476      3.98101      6.62196         0.026509     -1.274997      0.527214
O       5.64185      0.04181      6.75070        -0.263782     -0.582376     -0.267054
O       5.92203      3.82690     10.68435         0.103694      0.043849      0.148442
O       5.73637     15.39738     10.98554         0.963190      1.465962     -0.739228
O       5.89604      7.69019      2.72866        -0.857252      1.006725     -0.606136
O       5.85811      7.76468     15.04695        -0.037093     -0.310465     -0.654774
O       5.72893      7.86346      6.47682         0.699433     -0.987853     -0.051847
O       5.81703      7.77225     10.90271         0.525867     -0.576231     -0.346667
O       5.76207     11.63069      2.33357         0.090606      0.399142      0.396730
O       5.76104     11.60866     14.98705        -0.171831     -0.364084      0.127245
O       5.71085     11.68531      6.70828         0.442492      0.650971     -0.715168
O       5.85846     11.55416     10.73157         0.628895      0.629165      0.246854
O       9.78337      3.97500      2.60356        -0.112747     -2.407025     -0.156747
O       9.67186      3.96125     14.77269         0.571550      0.053265      0.418550
O       9.79493     15.58026      2.48145        -0.536307      0.399070     -0.788840
O       9.64294     15.58248     14.98881        -0.862801     -0.372636      0.259444
O       9.65254      3.81021      6.38246         0.493515      0.412631      0.343108
O       9.70309     15.60067      6.75653         0.620599      0.186683      0.158546
O       9.44752      3.82858     10.73244         0.285528     -0.636166      0.283647
O       9.72270     15.48581     10.57324         0.107356      1.013758      0.644541
O       9.65872      7.79452      2.56970        -0.010396     -0.577210      0.004667
O       9.63114      7.83328     14.86575         0.601423     -0.857772      0.106189
O       9.67373      7.85903      6.69936         0.147045     -0.795440     -0.507989
O       9.81365      7.68924     10.44987         0.158597     -0.129347      0.846582
O       9.73036     11.63773      2.55144        -0.328587      0.243720     -0.006834
O       9.70997     11.69314     14.90509         0.326210      0.527067      0.161148
O       9.60565     11.78845      6.55871        -0.386811     -1.452435     -0.305413
O       9.84284     11.59321     10.62146        -0.094723      0.831012      0.431398
