  # total energy = -7882.76176989 
CRSYTAL
PRIMVEC
    15.6080000000000005    0.0000000000000000    0.0000000000000000
     0.0000000000000000   15.6080000000000005    0.0000000000000000
     0.0000000000000000    0.0000000000000000   16.6239999999999988
PRESSURE
-1.19625 -1.02058 -0.253425 -0.175862 0.303345 -0.019204
PRIMCOORD
320 1
Pb       3.98400      3.84320      4.18132        -0.345100      0.129554     -0.463443
Pb       3.88029      3.87748      0.02306        -0.271127     -0.001420     -0.218727
Pb       3.92418      0.01465      4.13425         0.358236     -0.016007     -0.133339
Pb       3.83746     15.53988     16.57372         0.131307      0.036637     -0.315369
Pb      15.49105      3.84950      4.09285         0.624703      0.127910      0.372611
Pb      15.58180      3.82405     16.59162        -0.591596      0.401545     -0.304659
Pb       0.02069     15.57528      4.08341        -0.219905      0.308779      0.839229
Pb       0.05384      0.00159      0.00500        -0.358986     -0.162900     -0.395155
Pb       3.88430      3.88612      8.28872         0.075210     -0.143503      0.003157
Pb       3.97621      0.13088      8.33701        -0.035518     -0.621066     -0.176310
Pb      15.55002      3.93830      8.23135        -0.045275     -0.454830      0.276345
Pb       0.06161     15.59969      8.26753         0.075873      0.165374     -0.266790
Pb       3.71248      4.00663     12.59293         0.629450     -0.548129     -0.063495
Pb       3.80886     15.46539     12.47383         0.069382      0.317829      0.048414
Pb      15.56652      3.86349     12.43518        -0.318687     -0.191624      0.044562
Pb       0.07157     15.59804     12.45847        -0.235669     -0.518306     -0.118646
Pb       3.74818      7.85862      4.03732         0.161239     -0.587194      0.500038
Pb       3.80780      7.68396     16.56713         0.220214      0.645425      0.230829
Pb       0.01312      7.88859      4.02314         0.141920     -0.491223      0.375211
Pb      15.56931      7.78127     16.60112        -0.190332     -0.139047      0.038282
Pb       3.95474      7.78914      8.32531        -0.366297      0.294716     -0.325021
Pb      15.44926      7.77554      8.47440         0.376694      0.270225     -0.817865
Pb       3.86670      7.85466     12.52857         0.004849      0.017306     -0.535442
Pb      15.45552      7.72573     12.47668         0.288653      0.499676     -0.285313
Pb       3.90586     11.71169      4.12525        -0.154370      0.084085      0.004796
Pb       3.87574     11.67921     16.53717         0.223118     -0.324667     -0.497267
Pb      15.59300     11.80818      4.10885         0.044537     -0.097514      0.357563
Pb       0.02078     11.80730      0.06942        -0.078398     -0.059721     -0.196482
Pb       3.85521     11.81639      8.31881         0.081655     -0.671591     -0.401031
Pb      15.47211     11.68482      8.17792         0.986496     -0.325518      0.104861
Pb       3.82281     11.78183     12.41321        -0.156161     -0.449966     -0.283331
Pb      15.59650     11.53751     12.40645         0.244005      0.403529     -0.190795
Pb       7.73008      3.75632      4.11654         0.033486      0.096840      0.023575
Pb       7.64600      3.78487     16.56550         1.046465      0.075542      0.300639
Pb       7.72445     15.52337      4.11517        -0.152598      0.264881     -0.079015
Pb       7.77994     15.57685      0.01238         0.047626      0.001664     -0.027282
Pb       7.74683      3.85835      8.46012        -0.116191      0.005403     -0.212269
Pb       7.87298     15.54685      8.41156        -0.821886      0.016995     -0.334035
Pb       7.79527      3.82636     12.51339        -0.335491      0.021252     -0.681493
Pb       7.89444      0.04261     12.53064        -0.559783     -0.160861     -0.536725
Pb       7.74449      7.79733      4.00957         0.177988      0.156893      0.669752
Pb       7.76325      7.84092     16.53759         0.464246     -0.216516     -0.273156
Pb       7.94128      7.85557      8.31430        -0.456090     -0.112197     -0.437000
Pb       7.93644      7.65848     12.47862        -0.490647      0.516134     -0.252101
Pb       7.79589     11.77402      4.03742         0.149658     -0.245521      0.552061
Pb       7.77015     11.64715     16.52502         0.250479      0.096176     -0.089035
Pb       7.67739     11.68757      8.29583        -0.267990      0.103783     -0.314927
Pb       7.80440     11.58440     12.47986        -0.065027      0.250935     -0.640029
Pb      11.75942      3.93774      4.28888        -0.299467     -0.218566     -0.205362
Pb      11.75874      4.01355      0.10181         0.089105     -0.627108     -0.623044
Pb      11.60591      0.09579      4.19156         0.162042      0.028167      0.219760
Pb      11.64703     15.57900     16.56469         0.396734     -0.013458      0.005352
Pb      11.63461      4.01855      8.36162         0.405555     -0.465693     -0.322270
Pb      11.49542     15.55156      8.25977         0.584644      0.556853     -0.076305
Pb      11.74179      3.77054     12.45785         0.208643      0.302829     -0.507007
Pb      11.66922     15.48490     12.39219         0.387908      0.218078     -0.044158
Pb      11.75400      7.62466      3.97573        -0.471140      0.713530      0.494299
Pb      11.66741      7.78090      0.00922        -0.101278      0.423958     -0.405160
Pb      11.65102      7.83837      8.16256         0.261652     -0.375354      0.281072
Pb      11.55250      7.85371     12.51424         0.392900     -0.159010     -0.402098
Pb      11.71461     11.62109      4.31065        -0.180478      0.101870     -0.612780
Pb      11.89961     11.72823     16.58600        -0.736112     -0.096692     -0.103487
Pb      11.75167     11.77706      8.36776        -0.201909      0.023496     -0.845983
Pb      11.62350     11.68325     12.34379         0.294781     -0.150158      0.480496
Ti       1.92476      1.94924      2.11457         0.290735      0.845800      0.940632
Ti       1.91997      1.94789     14.63397        -0.253929     -0.727241     -0.797332
Ti       1.91036     13.79763      2.19410         0.785739     -1.392603      0.301084
Ti       1.89715     13.58728     14.66784        -0.165393      0.144081      0.016033
Ti      13.60791      1.92554      2.19139         0.064473     -0.050069     -0.063889
Ti      13.65773      1.77912     14.62544        -0.646427      0.762005      0.410317
Ti      13.60814     13.75499      2.25371         0.622043     -0.881631     -0.335236
Ti      13.67719     13.57111     14.65135         0.065390      0.416029     -0.135543
Ti       1.99939      1.85893      6.30194        -0.663999      0.127558      0.552332
Ti       2.00393     13.60752      6.37940        -0.553253      0.093533     -0.298942
Ti      13.61408      1.90284      6.43336        -0.058287      0.198046      0.619510
Ti      13.61376     13.71755      6.43102         0.201409     -0.323902     -0.417121
Ti       1.98255      1.94154     10.54105        -0.708695     -0.691085     -0.262893
Ti       1.96066     13.64970     10.45692        -1.160456     -1.494556     -0.745627
Ti      13.71776      1.90464     10.51140        -0.196989      0.559434     -1.591183
Ti      13.66696     13.62125     10.43393         1.008937     -0.155056      0.638465
Ti       1.94714      5.78490      2.17577         0.242274      0.287234      0.008116
Ti       2.02778      5.81669     14.66312        -1.498689      0.413955      1.078420
Ti      13.62040      5.75882      2.26573         0.758159      0.371530     -0.540600
Ti      13.67943      5.74029     14.63416         0.007892     -0.367671      1.099483
Ti       2.00843      5.70128      6.40519        -0.972422      1.278262     -0.062054
Ti      13.64843      5.84261      6.40484         0.083373     -0.079127     -0.601782
Ti       1.96768      5.69284     10.50834        -0.540594      1.734376     -1.083882
Ti      13.63326      5.86624     10.57463        -0.980277     -0.074210      0.094577
Ti       1.91003      9.79541      2.12013        -0.019737     -0.398876      0.392074
Ti       1.86451      9.67492     14.70801         0.587969      0.772219     -0.268772
Ti      13.64912      9.83667      2.18324        -0.607825     -0.831620      0.148639
Ti      13.67668      9.68012     14.73364        -0.329999      0.526861      0.537289
Ti       1.99026      9.64571      6.45632        -0.430706      0.060068     -0.141792
Ti      13.64152      9.75929      6.26065         1.019150     -0.203280      0.051417
Ti       1.96412      9.59791     10.46793        -0.368963      1.000607     -0.219622
Ti      13.61387      9.73381     10.49142         0.205561     -0.739360     -0.325924
Ti       5.81341      1.97565      2.09986         0.112997     -1.314294      0.753980
Ti       5.81744      1.86173     14.62437        -0.018908      0.275696     -0.326583
Ti       5.86179     13.61619      2.13136        -0.352898      0.857220      0.382183
Ti       5.82633     13.63405     14.67303         0.151758     -0.370964      1.434730
Ti       5.83732      1.98190      6.44582         0.176423     -0.974871     -0.710901
Ti       5.82823     13.68983      6.31418         0.065441     -0.235150      0.622156
Ti       5.75256      1.94403     10.61796         0.869274     -0.093548     -0.592091
Ti       5.85909     13.73140     10.55274         0.879225     -0.662969     -1.159966
Ti       5.90705      5.87418      2.10833        -1.288328      0.006958     -0.238601
Ti       5.90458      5.77392     14.75133         0.215598      0.671156     -1.121077
Ti       5.86045      5.83046      6.36501         0.616987      0.311239      0.439333
Ti       5.75338      5.88177     10.54810         1.078664     -0.225908      0.670750
Ti       5.81616      9.75692      2.14402        -0.121488     -0.101837     -0.130130
Ti       5.88430      9.68081     14.56018        -0.756761      0.302504      3.389283
Ti       5.88155      9.68999      6.26854        -0.070654      0.615132      1.011639
Ti       5.74475      9.76489     10.45844         0.947814      0.271720      0.893045
Ti       9.72134      1.93440      2.21786        -0.219834     -0.132294     -0.746880
Ti       9.80175      1.89869     14.69195         0.439485      0.264246      0.439570
Ti       9.91809     13.64689      2.18432        -1.335064     -0.730139     -0.034906
Ti       9.75665     13.65576     14.64447         0.479314     -1.166800      0.957151
Ti       9.61545      1.99835      6.38504         0.685170     -0.601964      0.612989
Ti       9.65468     13.64818      6.35484         0.328233     -0.296516      0.587763
Ti       9.77204      1.94682     10.54776        -0.296144      0.050905      0.294686
Ti       9.72477     13.64879     10.52491        -1.045171     -0.705347      0.374684
Ti       9.64928      5.81875      2.15755         0.964856     -0.471814      0.328221
Ti       9.79874      5.75073     14.65472        -0.290672      0.803519      1.176836
Ti       9.65273      5.83714      6.37781         0.528945      0.578459      0.226484
Ti       9.74048      5.82734     10.49614         0.564937      0.509534      0.167563
Ti       9.70410      9.72374      2.19232         1.142748      0.778297     -0.520564
Ti       9.78708      9.81063     14.64698         0.434888     -0.656337      0.691769
Ti       9.79222      9.79970      6.33222        -0.927912     -0.773907      1.694880
Ti       9.72262      9.71086     10.46114        -0.301195      0.127235      1.609790
O       1.92959      1.94387      0.33880         0.114386     -0.037420     -0.828556
O       1.86876      1.95539     12.78789         0.162503     -0.394589      1.660815
O       1.86806     13.69591      0.42126         0.275306      0.389393     -0.296273
O       1.94805     13.64463     12.90025        -0.157073     -0.187238     -0.936351
O      13.64750      1.88556      0.42500         0.127541      0.042400      0.301635
O      13.70749      1.83027     12.82313        -0.286226      0.133408     -0.065101
O      13.76577     13.58299      0.46532        -0.486377      0.544908      0.659593
O      13.76439     13.52795     12.89964        -0.300726      0.291010     -0.835563
O       2.11255      1.91639      4.53032        -0.101417      0.112884     -0.081456
O       2.00818     13.75024      4.53084         0.106765     -0.654085      0.124485
O      13.57061      1.89979      4.64830        -0.024986      0.205691     -0.367923
O      13.67890     13.65205      4.63799        -0.324808      0.006119     -0.468570
O       2.02396      1.84710      8.74243        -0.053490      0.209974      0.549182
O       1.84110     13.71339      8.64754         0.375931     -0.247833      0.764915
O      13.74775      2.08435      8.68487        -0.066259     -0.840355      1.446357
O      13.64213     13.51375      8.63508         0.000341      0.019885      0.652560
O       2.04387      5.82784      0.35225        -0.293509     -0.310081      0.673396
O       1.87242      5.87528     12.90856         0.598574     -0.049518     -0.890937
O      13.65177      5.53418      0.47024        -0.107248      0.784150      0.726961
O      13.64282      5.79326     12.85227         0.230892      0.160629      0.391804
O       2.03193      5.81557      4.64130        -0.111096     -0.319167     -0.026407
O      13.62943      5.71414      4.57014        -0.281273      0.012085      0.200002
O       1.97168      5.61490      8.70081         0.123267     -0.037686      0.941354
O      13.56143      5.90983      8.79568         0.361156     -0.240641     -0.426675
O       1.89091      9.69390      0.35605         0.349092     -0.025338     -0.164876
O       1.80096      9.74990     12.91398         0.485639     -0.528392      0.012689
O      13.63884      9.72614      0.36297        -0.080904      0.207530      0.886645
O      13.80703      9.73030     12.98599        -0.351394     -0.277737     -1.076984
O       1.99783      9.63695      4.62348        -0.120678      0.031178      0.138040
O      13.68106      9.88750      4.45866         0.210723     -0.569439      0.608980
O       1.95782      9.69175      8.69895         0.058595     -0.000302      0.306246
O      13.79203      9.62964      8.70458        -0.825485      0.538469      0.095548
O       5.98046      1.91999      0.33000        -0.339725      0.125703     -0.287857
O       5.90618      1.89268     12.78986        -0.066552      0.138299      1.268943
O       5.87586     13.60962      0.33007        -0.215912      0.101634      0.556288
O       5.78292     13.66052     12.96884         0.081347      0.268299     -1.508334
O       5.77398      1.96786      4.61716         0.113931      0.304621      0.021674
O       5.76478     13.64881      4.51215        -0.193113      0.158993      0.111205
O       5.70243      1.77863      8.76463         0.261211      0.735236      0.986181
O       6.01548     13.75492      8.70905        -0.347658     -0.293700      1.313990
O       5.86715      5.76633      0.29256         0.013154     -0.105686      0.831614
O       5.81772      5.79426     12.94840        -0.016594     -0.307717     -0.068253
O       6.01985      5.79569      4.62820        -0.397675     -0.212447     -1.237561
O       5.78999      5.90710      8.80524        -0.013151     -0.215295     -0.516916
O       5.80993      9.90170      0.36125         0.075089     -0.398275      0.788442
O       5.92290      9.75943     12.89075        -0.264381     -0.199045     -1.925527
O       6.01346      9.72125      4.48304        -0.678117     -0.126757      0.346285
O       5.67738      9.79820      8.69589         0.662111     -0.129221      0.760086
O       9.69600      1.76797      0.39892         0.210556      0.325081      0.825333
O       9.80279      1.87489     12.88994         0.105384     -0.017536     -0.531500
O       9.92704     13.60598      0.39790        -0.436436      0.055780      0.308020
O       9.79361     13.55754     12.89367         0.077848      0.532632     -0.878360
O       9.64150      1.89092      4.60996         0.052196      0.238031     -0.118013
O       9.78948     13.54426      4.63780        -0.001271      0.650063     -1.002417
O       9.70521      2.01183      8.80632         0.046462     -0.210167     -0.458088
O       9.61358     13.63588      8.75217         0.198833     -0.343327     -0.510183
O       9.68030      5.71092      0.41466         0.430291      0.234154     -0.542207
O       9.64483      5.91027     12.90305         0.488652     -0.225942     -0.387194
O       9.73533      5.87642      4.61650        -0.155345     -0.287322     -0.597846
O       9.87970      5.84186      8.71149        -0.563501      0.131957      0.222266
O       9.89625      9.81374      0.42369        -0.609093     -0.025773      0.516123
O       9.70860      9.62638     12.87281         0.198003      0.311385     -0.123182
O       9.52222      9.53601      4.68257         0.138444      0.391527     -2.465696
O       9.74855      9.64655      8.72488         0.190331      0.429865     -0.944451
O       3.89443      1.97757      2.35495        -0.121255      0.016288      0.128224
O       3.90735      1.95725     14.95908         0.098311     -0.190410     -0.142226
O       3.85975     13.69949      2.37082        -0.261001     -0.367707      0.258811
O       3.81853     13.65665     14.85485         1.207735      0.208579      1.071303
O       0.04116      1.92851      2.49164        -0.956016      0.208746      0.113653
O      15.56459      1.93886     14.91870         1.023486     -0.089537      0.226139
O      15.57869     13.71724      2.52481        -0.156516     -0.116377      0.320387
O       0.05739     13.83087     15.11199        -0.785504     -0.836067     -0.440012
O       3.95261      2.03795      6.69257        -1.199701      0.049343      0.041851
O       3.93755     13.59936      6.73137        -0.516428      0.030230     -0.255869
O      15.58492      1.71562      6.56739         0.229546      0.431811      0.182751
O       0.06510     13.55885      6.53977        -0.783165      0.618408      0.457328
O       3.83226      1.81429     10.96164         0.713298      0.721369     -0.323208
O       3.90404     13.60834     10.65760         0.039967      0.100874      0.733351
O       0.05054      1.98080     10.77375        -0.481744     -0.719863      0.257351
O      15.57939     13.51223     10.81174        -0.260373      0.319608     -0.317733
O       3.92957      5.91677      2.49662         0.615933     -0.912358     -0.185362
O       3.90157      5.79390     15.06160         0.396572      0.035262     -0.600202
O      15.60565      5.79555      2.59549        -0.098835     -0.216459     -0.394451
O      15.55829      5.74171     15.09419         0.447903      0.382399     -0.496884
O       3.95873      5.71019      6.62883        -0.593026     -0.294473      0.310459
O      15.59136      5.72105      6.67427        -0.227522      0.464322      0.065123
O       3.86745      5.61886     10.83812         0.101506     -0.094330      0.258052
O       0.01062      5.93035     10.82035         0.237233     -0.246086     -0.043576
O       3.83605      9.61219      2.54584         0.537141      1.170512     -0.570127
O       3.84923      9.72993     14.95775         0.522520     -0.137562     -0.215097
O       0.00820      9.59059      2.40003        -0.532837      0.141614      0.239452
O      15.59970      9.67588     14.99373        -0.152053     -0.131985      0.478497
O       3.89967      9.82478      6.78079         0.554032     -0.487977     -0.888415
O      15.57493      9.73478      6.62012        -0.032604      0.004540     -0.010530
O       3.90957      9.85721     10.85543         0.008918     -0.350039      0.399770
O       0.04400      9.54369     10.72040        -0.231633      0.215976      0.589264
O       7.69726      1.75604      2.56153         0.937257      0.393333     -0.173728
O       7.92561      1.73556     14.97575        -0.582881      0.470036     -0.325860
O       7.76212     13.75177      2.57809        -0.080105     -0.711807     -0.725815
O       7.82897     13.75328     14.99178        -0.040217     -0.307378     -0.218970
O       7.72892      1.97933      6.85464         1.040065     -0.316375     -0.285623
O       7.73480     13.76387      6.62733         0.609815     -0.523743     -0.065804
O       7.79084      1.89726     10.83071         0.762585     -0.285745      0.265834
O       7.79910     13.75194     10.97765         0.271672     -0.306214     -0.216669
O       7.82859      5.86992      2.39852        -1.353201      0.171178      0.341914
O       7.81844      5.89962     14.97867         0.361183     -0.308980      0.038077
O       7.79115      5.99249      6.68946         0.312017     -0.699696      0.516735
O       7.83093      6.02996     10.76320        -0.345707     -0.423803      0.134589
O       7.76995      9.74938      2.43845         0.116911      0.040003     -0.295344
O       7.84617      9.75108     15.01583        -0.875699     -0.337136     -0.022757
O       7.75372      9.82714      6.82529        -0.059298     -0.634215     -0.326501
O       7.79557      9.68314     10.82444        -0.443580     -0.175427     -0.360443
O      11.65288      2.00112      2.57272        -0.116484     -0.229662     -0.125115
O      11.76069      1.90560     15.08420        -0.457218      0.173235     -0.509585
O      11.72965     13.64138      2.53049         0.713235     -0.246260      0.239001
O      11.77520     13.50611     14.95008        -0.261739      0.054427      0.058860
O      11.67199      1.82493      6.77688        -0.778353      0.569861     -0.451065
O      11.66110     13.67834      6.79267        -0.238793     -0.493519     -0.194002
O      11.77193      1.95382     10.79210        -0.580497     -0.077131      0.367289
O      11.64861     13.54503     10.80722         0.870635      0.047916     -0.146908
O      11.61107      5.61400      2.55299         0.703852      0.436638     -0.200493
O      11.74509      5.77940     15.06713        -0.337367     -0.111376     -0.309446
O      11.68994      5.81746      6.72220         0.187445     -0.063534     -0.315688
O      11.68185      5.81585     10.89855         0.130280     -0.244324      0.171160
O      11.69163      9.67895      2.61037         0.303543      0.470781     -0.090401
O      11.68708      9.81464     14.96339         1.009774      0.066495     -0.071549
O      11.71076      9.77116      6.48621         0.270337     -0.018811      0.367512
O      11.69475      9.68021     10.83110         0.084180      0.493942     -0.000213
O       1.97489      3.87819      2.45174         0.018964     -0.111223      0.113057
O       2.07964      3.92718     14.82653        -0.496887     -1.111405      0.428818
O       1.79312      0.04640      2.47446         0.935511     -0.254819     -0.291281
O       1.91359     15.60083     14.86242         0.509768      1.108454      0.519092
O      13.67007      3.80773      2.54607        -0.093662      0.135815      0.353952
O      13.68777      3.79791     15.04081        -0.305075      0.559688     -0.583410
O      13.58753      0.01696      2.58941         0.102682     -0.103823     -0.169602
O      13.59992     15.51816     14.90144         0.166670      0.682931      0.346488
O       1.81195      3.74066      6.72711         0.760966      0.748201     -0.355051
O       2.03427     15.57786      6.63337         0.041424     -0.034877      0.084293
O      13.61714      3.89760      6.74339        -0.048667     -0.302240     -0.380745
O      13.51946     15.55520      6.83140         0.674303      0.138317     -0.235559
O       1.87221      3.83810     11.01511         0.499861      0.287323     -0.752090
O       1.95433     15.48109     10.86900        -0.290113      1.152165      0.040818
O      13.70759      3.88379     10.85294        -0.102945     -0.087192      0.220447
O      13.69203     15.48541     10.70879        -0.191519      0.644627      0.129565
O       1.98537      7.68901      2.49226        -0.560580      0.623499      0.076783
O       1.89058      7.75004     15.00809         0.278184     -0.102186     -0.063415
O      13.62864      7.69449      2.49947        -0.171895     -0.225112     -0.165369
O      13.60021      7.77302     15.09857         0.307533     -0.648796     -0.440320
O       1.98812      7.71113      6.83022         0.118703     -0.119034     -0.429354
O      13.65516      7.79623      6.66396        -0.109423     -0.191093     -0.360993
O       2.23383      7.70660     10.62313        -0.280482     -0.223250      0.743966
O      13.61253      7.81281     10.80770         0.215784     -0.675401      0.670943
O       1.74776     11.65378      2.37061         0.769530      0.438820      0.429052
O       1.87862     11.70752     15.03265        -0.043513     -0.368029     -0.033490
O      13.70787     11.66262      2.49926        -0.008365      0.694979     -0.105303
O      13.80325     11.74066     15.04356         0.060070     -1.261376      0.140173
O       1.94621     11.64518      6.77269         0.232269      0.610314     -0.531569
O      13.63031     11.70912      6.68421        -0.468010     -0.475378     -0.032007
O       1.97810     11.64096     10.86040        -0.114847      0.419300     -0.166716
O      13.58560     11.57775     10.83697         0.291224      0.909447     -0.318194
O       5.94530      3.88026      2.39223        -0.168510      0.431855      0.215356
O       5.98363      3.79666     14.95707        -0.319616      0.150328     -0.173434
O       5.70871      0.02088      2.52229         0.370263     -0.688318     -0.452722
O       5.90555      0.04397     15.04852        -0.692681     -0.953662     -0.230091
O       5.95578      3.86102      6.74205        -0.177128      1.045428      0.306022
O       5.73699      0.04019      6.68749         0.258883     -0.477415     -0.388318
O       6.05045      3.84472     10.72633        -0.620843      0.242769      0.325530
O       5.83881     15.58258     10.89871        -0.200091      0.052902      0.165347
O       5.83222      7.79516      2.30229         0.486040     -0.177347      0.231243
O       5.87107      7.71564     14.96887        -0.152855      1.058988      0.036346
O       5.86350      7.77700      6.66062        -0.317696      0.596946     -0.127677
O       5.59982      7.76094     10.94022         0.396513      0.480882     -0.490333
O       5.77668     11.68599      2.57158        -0.007100      0.336407     -0.510544
O       5.84409     11.67533     14.98330         0.164126      0.376000     -0.286242
O       5.88619     11.74439      6.62949        -0.094104     -0.270222     -0.001780
O       5.92300     11.74761     10.95803        -0.174191     -0.482933     -0.616892
O       9.53464      3.80335      2.53072         0.298157      0.039791     -0.218362
O       9.77869      3.85956     14.88894        -0.188191     -0.114196     -0.007713
O       9.83062     15.49908      2.54513        -0.230130      1.010150      0.205375
O      10.02234     15.50094     14.90138        -0.690599      0.786966     -0.095886
O       9.68596      3.88389      6.74671         0.036904      0.032540     -0.287350
O       9.64740     15.58438      6.62797         0.350135      0.461577      0.505676
O       9.71547      3.93955     10.80798        -0.016381     -0.756911      0.445713
O       9.82473     15.54020     10.69608         0.051934      0.928927      0.801265
O       9.82074      7.81516      2.38652        -0.388398     -1.010565      0.232822
O       9.90998      7.82373     15.04026        -0.631839     -0.730615     -0.004126
O       9.78004      7.80030      6.70469        -0.222936     -0.195052      0.348442
O       9.88008      7.82312     10.88751        -0.680936     -0.739927     -0.215838
O       9.77272     11.70994      2.72896        -0.067276     -0.402970     -0.777328
O       9.70138     11.66502     14.95466        -0.103761      0.649587     -0.028736
O       9.79193     11.67010      6.55683        -0.242517      0.638770      0.625323
O       9.70049     11.64855     10.91113         0.064346      0.112581     -0.531365
