  # total energy = -7880.87911297 
CRSYTAL
PRIMVEC
    15.6080000000000005    0.0000000000000000    0.0000000000000000
     0.0000000000000000   15.6080000000000005    0.0000000000000000
     0.0000000000000000    0.0000000000000000   16.6239999999999988
PRESSURE
-0.115707 -0.189324 0.01094 -0.175657 -0.161047 0.023011
PRIMCOORD
320 1
Pb       3.97448      3.96681      4.16357         0.232434     -0.189529     -0.305963
Pb       4.03743      4.06576      0.10904        -0.670170     -1.031819     -0.522221
Pb       3.88761      0.01394      4.04335        -0.436911      0.053074      0.291833
Pb       3.78599     15.57255     16.60877         0.388084      0.481111     -0.128326
Pb       0.07376      3.84693      4.11477        -0.485912     -0.107467      0.668050
Pb      15.48194      3.84358      0.01008         0.564329     -0.250040     -0.462127
Pb      15.52773     15.59113      4.00458         0.625908     -0.375223      0.669594
Pb      15.50682     15.55760     16.59937         0.342218      0.251848     -0.276442
Pb       3.71644      3.83383      8.33194         0.817092     -0.082326      0.033816
Pb       3.89554      0.04986      8.33191        -0.297970      0.022566     -0.278470
Pb      15.56255      3.81615      8.26022        -0.057056     -0.406570      0.442094
Pb       0.11748     15.56993      8.19813        -0.483751      0.357463      0.758643
Pb       3.92202      3.94836     12.36330        -0.368123     -0.495639      0.625815
Pb       3.84439     15.44103     12.29560         0.167293      0.750754      0.576983
Pb      15.58249      3.76831     12.43310         0.005772      0.700334     -0.073335
Pb      15.53141      0.24212     12.54644         0.558210     -0.665512     -0.227992
Pb       3.82243      7.83067      4.30825         0.389046     -0.152036     -0.522270
Pb       3.82013      7.74407      0.01922         0.136808      0.134939     -0.480228
Pb       0.19964      7.87177      4.20026        -0.812202     -0.169213      0.162702
Pb       0.02220      7.74803      0.02544        -0.012959     -0.092868     -0.280415
Pb       4.07086      7.71845      8.07709        -0.690573     -0.019770      1.259974
Pb      15.45731      7.77709      8.47913         0.242253     -0.044384     -0.227496
Pb       3.91211      7.86597     12.45557        -0.274104     -0.165418     -0.069444
Pb       0.00583      7.90554     12.56241         0.011582     -0.182345     -0.475203
Pb       3.85865     11.67527      4.08752        -0.383255      0.144875      0.528231
Pb       3.91420     11.59623     16.45217         0.188152      0.523421      0.749284
Pb      15.59030     11.65115      4.09432         0.136545      0.544253     -0.001577
Pb      15.55797     11.78697     16.55158         0.088560     -0.001025      0.323909
Pb       3.82387     11.63971      8.11904         0.456886     -0.024164      0.291506
Pb      15.55770     11.63343      8.32938         0.261919      0.202544      0.057478
Pb       4.02998     11.69575     12.34575        -0.514051     -0.246445     -0.098016
Pb       0.14751     11.54824     12.31544        -0.276804      0.422607      0.149686
Pb       7.86929      3.78781      4.18744        -0.697874      0.031065      0.031738
Pb       7.87221      3.99485      0.09886        -0.778713     -0.659320     -0.322342
Pb       7.81733     15.47424      3.99979        -0.797770      0.285583      1.086901
Pb       7.90256      0.14529      0.07185        -0.678852     -0.536042     -0.083050
Pb       7.62253      3.97901      8.30701         0.115322     -0.747493      0.077601
Pb       7.83671     15.51797      8.35072         0.174819      0.485740     -0.648466
Pb       7.68765      3.83389     12.40015         0.199248     -0.231917      0.372455
Pb       7.69489     15.56492     12.52859         0.019358      0.220675     -0.080725
Pb       7.72275      7.85318      4.16959         0.080585     -0.272970     -0.508627
Pb       7.88069      7.97965     16.60204        -0.524068     -0.374501     -0.021288
Pb       7.79351      7.77269      8.26036        -0.100720     -0.187485      0.040181
Pb       7.88129      7.60102     12.30506        -0.640663      0.814840      1.306141
Pb       7.96663     11.67397      4.29671        -0.612829      0.096117     -0.353588
Pb       7.70713     11.66025      0.04376        -0.155311      0.092791     -0.636196
Pb       7.62866     11.73880      8.11556         0.510977     -0.040719      0.364196
Pb       7.70760     11.51810     12.41062         0.081534      0.435904      0.297358
Pb      11.74005      3.95253      4.28879         0.005368     -0.176540     -0.251177
Pb      11.79258      4.06092      0.06754        -0.045165     -0.353063      0.072459
Pb      11.49511     15.51975      4.12625         1.260807     -0.076831      0.503223
Pb      11.57191     15.54686      0.08114         0.600218      0.074825     -0.376880
Pb      11.77933      4.02922      8.32606        -0.538473     -0.400578      0.559936
Pb      11.65287      0.09832      8.23205        -0.013139     -0.549932      0.326984
Pb      11.85547      3.82666     12.57221        -0.675825      0.544682     -0.630281
Pb      11.89905     15.53890     12.42094        -1.149475     -0.006153     -0.114085
Pb      11.71677      7.49585      4.01820        -0.413819      0.776353      0.487745
Pb      11.39845      7.77462     16.61950         1.196377     -0.038941      0.396260
Pb      11.57054      7.94121      8.18491         0.312897     -0.577931      0.665485
Pb      11.58450      7.83697     12.61129        -0.112122     -0.311444     -0.332546
Pb      11.57461     11.38242      4.23985         0.873856      0.736241     -0.064960
Pb      11.78858     11.77427     16.53942        -0.460064     -0.356811     -0.057127
Pb      12.01938     11.88896      8.34794        -1.537452     -0.121079      0.772046
Pb      11.65147     11.83590     12.41449        -0.122614     -0.250418     -0.099152
Ti       1.98295      2.10495      2.16208         0.586913     -2.080615     -0.597298
Ti       1.93375      2.01921     14.64042         1.011136     -0.567442      1.023238
Ti       1.96299     13.71285      2.12151        -0.572939      0.103398      1.454837
Ti       1.96841     13.63773     14.61816        -0.179702      0.794570      0.997260
Ti      13.65697      1.95735      2.34766        -0.387031     -0.837693      0.002165
Ti      13.56698      1.92746     14.68628         0.913635     -0.614653     -0.304603
Ti      13.61066     13.60564      2.18943         0.379973      0.152551      1.789403
Ti      13.64285     13.62320     14.55560         0.091696      0.589727      0.631776
Ti       1.92948      1.85974      6.25917        -0.087517     -0.400899      0.131062
Ti       1.90578     13.52869      6.46471         0.354258      0.157515     -1.712773
Ti      13.58883      1.95447      6.40800         0.151361     -0.345254      0.355764
Ti      13.67530     13.70946      6.39955        -0.157692     -0.121599      0.547661
Ti       1.92865      1.90601     10.57812         0.727418     -0.417884     -1.005912
Ti       1.91866     13.59665     10.46094        -0.038247     -0.048208     -0.502678
Ti      13.61189      1.99611     10.45780        -0.152423     -0.016850     -0.806252
Ti      13.68790     13.68597     10.59559         0.044384     -0.521382     -1.766959
Ti       1.83491      5.88393      2.20377         0.966208     -0.234585     -0.590584
Ti       1.96955      5.89171     14.52065         0.174254     -0.450265      0.190046
Ti      13.65974      5.80232      2.29181        -0.752613      0.280595     -0.836431
Ti      13.73115      5.82766     14.66025        -0.758530      0.133054     -0.196345
Ti       1.81009      5.74400      6.48831         1.309798      0.587872     -1.174875
Ti      13.63048      5.84223      6.46006        -0.600178      0.876088     -1.313810
Ti       1.71690      5.83961     10.58591         0.368344      0.201635      1.537837
Ti      13.43667      6.02662     10.61995         0.791728     -1.241577      1.930029
Ti       1.96046      9.73877      2.15138         0.036075      0.440635     -0.229446
Ti       1.88082      9.82247     14.74762         0.723035     -1.145876     -0.884641
Ti      13.63581      9.68062      2.13245        -0.062357      0.120561      0.113901
Ti      13.63872      9.67669     14.79155        -0.077725      0.157183     -1.173401
Ti       1.89583      9.58875      6.41883         0.234129      0.682933      1.076922
Ti      13.64307      9.75111      6.38356         0.098017     -0.272389      0.173063
Ti       1.95849      9.66573     10.40701         0.345589      0.467265      0.090021
Ti      13.59929      9.77641     10.49703        -0.104183      0.405176      0.320102
Ti       5.85060      1.88854      2.24208        -0.314590      0.575758      0.222477
Ti       5.78095      1.82830     14.82776        -0.801551      0.081327     -0.416857
Ti       5.79228     13.56015      2.25845        -0.133439      0.354190     -0.741193
Ti       5.79783     13.54770     14.54911         0.537848      1.007247      1.280465
Ti       5.77137      1.87962      6.27867         1.444891      0.321725      0.325582
Ti       5.84679     13.68966      6.22955        -0.034211     -0.265119      0.261866
Ti       5.84350      1.90881     10.44955        -0.839224     -0.163211     -0.012079
Ti       5.87620     13.61252     10.33467        -0.694695     -0.100242      0.621777
Ti       5.73085      5.87485      2.18325         0.020996     -0.211372      0.595744
Ti       5.83407      5.83695     14.72273        -0.405860     -0.321979     -0.664169
Ti       5.84419      5.71260      6.35983        -0.444144      0.195604     -0.238216
Ti       5.64642      5.82245     10.46666        -0.195862     -0.268807     -1.354810
Ti       5.84299      9.76740      2.23006         0.229507     -1.137051      0.078295
Ti       5.81742      9.68581     14.65032         0.198356     -0.143652     -0.462661
Ti       5.92078      9.67671      6.28227        -1.627111      0.097660      0.508619
Ti       5.82075      9.67866     10.39659        -0.225156      0.149848     -0.240107
Ti       9.78081      1.90400      2.34056        -0.425575      0.429635     -1.805721
Ti       9.80080      1.90447     14.73733        -0.555171     -0.308246     -0.298113
Ti       9.73564     13.56157      2.19566         0.433589     -0.306653     -0.023733
Ti       9.68827     13.62374     14.70075        -0.063235     -0.227014     -0.745052
Ti       9.64094      2.05427      6.49908        -0.412312     -1.136897      0.654170
Ti       9.75736     13.65682      6.34178        -0.235352      0.508620      1.926372
Ti       9.75297      1.88763     10.57684        -0.159001      0.035861     -0.372544
Ti       9.62674     13.69724     10.61025         1.334884     -0.192960     -1.091994
Ti       9.54771      5.76861      2.18786         1.604702      0.970290     -0.023558
Ti       9.72224      5.68392     14.81685         0.137567      1.314284     -1.581597
Ti       9.71537      5.80195      6.39592        -0.145402      0.120458     -0.686163
Ti       9.60712      5.79748     10.57059         1.903705     -0.378173      0.515797
Ti       9.82589      9.72141      2.23445        -1.186770     -0.945464     -0.880275
Ti       9.75380      9.77344     14.67002        -0.697817     -0.097884      0.209377
Ti       9.72299      9.76115      6.43487         0.530670      0.369482     -0.616762
Ti       9.72336      9.79940     10.56128         0.204229     -0.113661      0.716739
O       1.93939      2.16022      0.34781        -0.405357     -0.272462      1.171191
O       1.96183      1.81692     12.86171        -0.593261     -0.171655     -0.991185
O       2.05123     13.64948      0.38780        -0.071887     -0.251457     -0.589367
O       1.88685     13.63500     12.88802        -0.009907     -0.134643     -0.885268
O      13.71790      1.85371      0.57631        -0.196174      0.449045     -0.784543
O      13.61861      1.98901     12.84916         0.068721     -0.325039      0.055909
O      13.72227     13.85172      0.48478        -0.477070     -0.536377     -1.379431
O      13.63038     13.59251     12.78441         0.239241     -0.026404     -0.318191
O       1.97184      1.81598      4.47412        -0.061946      0.679768      0.997096
O       1.73233     13.48561      4.66609         0.241807      0.182310      0.708465
O      13.63887      2.07971      4.66143        -0.307166     -0.253859     -0.484698
O      13.86569     13.59130      4.67837        -0.257165      0.006660     -0.653088
O       2.01895      1.80237      8.72357        -0.124342      0.416330      0.861211
O       2.05079     13.52635      8.65716        -0.047847      0.402565     -0.075899
O      13.61315      1.92398      8.64776         0.017526      0.275727      0.692290
O      13.47608     13.67203      8.71900         0.586026     -0.004848      0.500604
O       1.79116      5.81576      0.38674         0.128252     -0.021678      1.191639
O       2.05800      6.03065     12.73148        -0.163245     -0.505957      0.729649
O      13.74973      5.63123      0.48365         0.052527     -0.110642      0.272005
O      13.41558      5.86604     12.89811         0.379598     -0.133197      0.614724
O       1.98326      5.88242      4.68038        -0.456213     -0.230184      0.540493
O      13.45763      5.90059      4.63532         0.431393     -0.467647      0.505211
O       1.55731      5.81222      8.87038         0.000689     -0.194410     -2.039984
O      13.55395      5.86621      8.90322         0.371193      0.157088     -2.541516
O       1.99706      9.67105      0.36166        -0.123763      0.076107      0.858701
O       1.90118      9.84800     12.91232        -0.236375     -0.218088      0.481045
O      13.57033      9.78172      0.37204         0.375717     -0.194282     -0.161195
O      13.78259      9.75335     12.94120        -0.360287     -0.143377      1.447616
O       1.93024      9.59338      4.64015        -0.088539     -0.108107     -0.789791
O      13.56380      9.68254      4.62061        -0.166215      0.203092     -0.536954
O       1.92722      9.63741      8.63607        -0.182166      0.037315     -0.213339
O      13.57885      9.76143      8.69539         0.381656     -0.262109      0.303724
O       5.83337      1.80062      0.48613         0.065239      0.153153     -0.773125
O       5.76837      1.81044     13.04409         0.498070      0.264150     -0.432563
O       5.61199     13.39782      0.45731         0.580313      0.268706      1.325340
O       5.77429     13.60789     12.78564         0.498875      0.068845     -0.570275
O       5.83514      1.99998      4.49370         0.054018     -0.138306      0.335890
O       5.95413     13.64455      4.45483        -0.186914     -0.306848     -0.119979
O       5.78699      1.91725      8.66963        -0.066646      0.059745      0.711312
O       5.86476     13.55880      8.54429         0.135796     -0.080675      0.471624
O       5.56622      5.87945      0.40008         0.748283     -0.177202     -0.502249
O       5.61440      5.82803     12.90282         0.556329     -0.061109      0.176309
O       5.76273      5.78914      4.55335        -0.006224      0.003382     -0.302442
O       5.78745      5.64409      8.60771         0.452797      0.596868      1.393325
O       5.87492      9.84933      0.43822        -0.064279     -0.133746     -0.381012
O       5.67870      9.69328     12.85718         0.493670      0.122360     -0.177179
O       5.85740      9.44079      4.52752         0.170017      0.345885     -1.019314
O       5.88410      9.73899      8.60035        -0.001059     -0.303841      0.675049
O       9.86572      1.67082      0.50918        -0.465669      0.515957      0.752118
O       9.76320      1.96998     12.98353        -0.196200     -0.012072     -0.184748
O       9.94725     13.61697      0.43633        -0.569795      0.090406     -0.164790
O       9.73851     13.52850     12.90550        -0.217316      0.346217      0.543975
O       9.61817      2.16906      4.74444         0.226611     -0.136422     -2.137051
O       9.67351     13.56428      4.62305         0.267599     -0.332155     -2.568730
O       9.52659      1.67862      8.77445         0.786493      0.440972      0.918191
O       9.60916     13.76129      8.78489         0.080700     -0.004152      0.215288
O       9.65509      5.87646      0.34111         0.287794     -0.215882      0.730902
O       9.72786      5.79896     12.99753        -0.038923     -0.215114      0.420096
O       9.70517      5.72526      4.58412         0.038034     -0.163389     -0.183977
O       9.59108      6.01384      8.83842         0.178386     -0.445738     -0.778103
O       9.66795      9.69604      0.41638         0.086705     -0.003485      0.309238
O       9.74015      9.74857     12.90604        -0.019801      0.041268     -0.862446
O       9.78403      9.81928      4.58190        -0.320450     -0.365777      0.359307
O       9.56765      9.53950      8.82845         0.295369      0.315247     -0.719158
O       3.92034      2.02308      2.52715        -1.081254      0.001456     -0.092387
O       3.86861      1.92644     15.08696        -0.190859     -0.126903      0.085743
O       3.84629     13.60168      2.72084         0.436829     -0.254341     -0.610749
O       3.93234     13.34197     14.77398        -1.171296      0.353566      0.323039
O      15.55569      1.98908      2.60843         0.711945     -0.299788     -0.294228
O      15.60670      1.89367     14.91338        -0.734022      0.037140      0.211449
O       0.02494     13.82428      2.42963         0.056867     -0.749354     -0.089471
O      15.55852     13.71060     15.00636         0.300346     -0.436287     -0.040803
O       3.94631      1.87909      6.67858        -1.275904     -0.151372     -0.231173
O       3.95071     13.48657      6.53097        -0.529125      0.317204      0.070274
O      15.60440      1.92168      6.58581         0.175897      0.200384      0.247628
O      15.58682     13.60852      6.88146        -0.061648     -0.150819     -0.333924
O       3.86763      1.87902     10.90134         0.347390      0.311599     -0.471925
O       3.84851     13.58179     10.75547         1.094045      0.197947     -0.053359
O      15.55353      1.97440     10.74945         0.060103     -0.198973      0.551189
O       0.04825     13.62400     10.64392        -0.751590     -0.088022      0.351930
O       3.75977      5.75481      2.50710         0.271287      0.010698     -0.087793
O       3.83397      5.97579     14.96983         0.479895     -0.608695      0.350568
O      15.50978      5.97572      2.70145         0.921612     -0.575915     -0.400627
O       0.05537      5.87662     14.84954        -0.717948     -0.488052     -0.002262
O       3.85148      5.75126      6.84110        -0.728336     -0.024777     -0.673619
O      15.49729      5.69706      6.66567         0.314313      0.000421      0.186984
O       3.76443      5.88568     10.58071         0.720569     -0.423377      0.440024
O      15.41977      5.85133     11.11161         0.922041      0.053797     -0.540996
O       3.84650      9.74189      2.55204        -0.063619     -0.240192     -0.061475
O       3.88971      9.80287     14.92107        -0.105002     -0.355634      0.258119
O      15.53426      9.52326      2.45364         0.689393      0.396524      0.111407
O       0.01580      9.69022     15.14178        -0.913078     -0.036084     -0.307278
O       3.91201      9.54586      6.55668        -0.664212      0.245909      0.042318
O      15.57493      9.84332      6.57562        -0.062585     -0.652213      0.362383
O       3.89780      9.72841     10.72665         0.035378     -0.185444      0.037827
O      15.60731      9.76852     10.76574        -0.381771     -0.186406     -0.084863
O       7.77216      1.78244      2.48732         0.770367      0.305106      0.236887
O       7.75769      1.82377     15.13344         0.783843      0.267274     -0.280148
O       7.81372     13.69760      2.38043        -0.281223     -0.477894      0.048412
O       7.77724     13.70240     15.04023         0.542253     -0.162245     -0.190185
O       7.73291      1.99862      6.76301        -0.295858      0.201574     -0.243133
O       7.78884     13.48498      6.48055        -0.345857      0.003019      0.707983
O       7.70087      1.98761     10.86403         0.444027     -0.455636      0.263449
O       7.76391     13.71853     10.82807        -1.160883     -0.369275     -0.020896
O       7.76635      5.89431      2.31871        -1.248420     -0.007083      0.532078
O       7.78710      5.76457     14.99965        -0.667666      0.020841      0.145818
O       7.79896      5.69248      6.61713        -0.840045      0.397748      0.168753
O       7.73537      5.74752     10.89633        -0.170512     -0.079247     -0.197061
O       7.76455      9.60804      2.51025         0.164531      0.014369      0.270039
O       7.78340      9.69762     15.00034         0.355938      0.304948     -0.061117
O       7.74815      9.65331      6.66386         1.299802     -0.059390     -0.292960
O       7.70389      9.71726     10.91576         0.692331     -0.325058     -0.368697
O      11.63457      1.90923      2.61889         0.188519      0.360304      0.380769
O      11.73961      1.95479     15.02813        -0.495901      0.093349      0.106176
O      11.69336     13.65707      2.52835        -0.265682     -0.235032      0.221483
O      11.73312     13.67884     14.92006         0.279728     -0.719420      0.225286
O      11.58264      1.97611      6.74687         0.878326      0.000189     -0.045371
O      11.64459     13.61533      6.65264         0.603237      0.272582     -0.225502
O      11.70058      1.75681     10.77030        -0.485549      0.230982     -0.036554
O      11.69203     13.63412     10.83920        -0.381613      0.124246      0.394386
O      11.64225      5.62474      2.53217         0.185494      0.114634     -0.091566
O      11.71690      5.78574     15.12083        -0.284854     -0.221251     -0.022101
O      11.64253      5.86329      6.68582         0.311417     -0.047876      0.489361
O      11.61980      5.86277     10.90484        -0.650056     -0.034439     -0.021217
O      11.67554      9.85187      2.35871         0.367232     -0.051488      0.721380
O      11.65505      9.74276     15.03836         1.372400     -0.147831     -0.202329
O      11.65156      9.76834      6.72199        -0.347029     -0.408949     -0.253418
O      11.71608      9.78469     10.80458        -1.072259     -0.021244      0.146477
O       1.87435      3.88736      2.57709        -0.406080      1.394790     -0.003105
O       1.95267      3.84377     14.60334        -0.139646      1.664518      0.506788
O       2.04713      0.04124      2.42594        -0.139055     -0.328216     -0.148996
O       1.99772     15.56129     15.03207        -0.017336     -0.886377     -0.298516
O      13.72348      3.86137      2.67814        -0.356865      0.364136     -0.276048
O      13.61020      3.84836     14.90649         0.442947      0.300504      0.564616
O      13.60073     15.56726      2.70170        -0.292783      0.538143     -0.184548
O      13.62591     15.58085     14.80319         0.233502      0.225832      0.305444
O       1.93748      3.77832      6.77511        -0.240417      0.323316     -0.442412
O       1.97389     15.53770      6.72206         0.089184      0.130597     -0.374027
O      13.52070      3.91243      6.79090         0.346119      0.207888     -0.208804
O      13.64265      0.04223      6.71610        -0.181081     -0.445850     -0.442539
O       1.85178      3.86833     10.83580         0.077982      0.218649      0.174073
O       1.94596     15.60561     10.78760        -0.224736     -0.599803      0.085967
O      13.49164      3.86564     10.77783         0.202106     -0.375897      0.289538
O      13.69820     15.53645     10.77083         0.018450      1.191343      0.656414
O       1.96618      7.76873      2.52387        -0.156299      0.049745     -0.031113
O       1.98942      7.76526     14.97562        -0.518598      0.797834      0.020485
O      13.40082      7.72800      2.36817         0.345691      0.167328      0.240886
O      13.72120      7.65089     15.16088        -0.418161      1.615166     -0.582245
O       1.82932      7.62047      6.80257        -0.208027      1.091381     -0.300421
O      13.70731      7.81082      6.78115        -0.254857     -0.506550     -0.032200
O       1.87620      7.84174     10.86790        -0.327419     -0.233426     -0.277255
O      13.61293      7.85637     10.93489         0.073761      0.634602     -0.337331
O       1.92840     11.68638      2.52934        -0.447160     -0.756119     -0.287239
O       1.83828     11.66459     15.08556        -0.111546      0.635787     -0.327411
O      13.74695     11.66613      2.45931        -0.082189      0.207385     -0.036431
O      13.69630     11.69543     15.06257        -0.149598     -0.113520     -0.300857
O       1.92402     11.56618      6.72109         0.142664      0.191224     -0.125391
O      13.59247     11.69551      6.72784         0.462521      0.045245     -0.331636
O       1.91723     11.67581     10.68970         0.126774     -0.413464      0.419082
O      13.60159     11.73984     10.66845         0.304889     -1.053515      0.526047
O       5.82238      3.85739      2.45838         0.202627      0.720825     -0.034037
O       5.69694      3.88298     15.10028         0.774232      0.502922     -0.207757
O       5.71458     15.57786      2.58500         0.399117     -1.019589     -0.439264
O       5.66101     15.47067     15.04963         0.437235     -0.097869     -0.153907
O       5.74988      3.84971      6.62617         0.213609     -0.363030     -0.091030
O       5.96131     15.55358      6.54331        -0.551470     -0.013236      0.037513
O       5.75496      3.88164     10.81999         0.166135     -0.229103      0.097956
O       5.82159     15.53872     10.62275        -0.076400      0.113067      0.351044
O       5.74485      7.70743      2.34746        -0.019177      0.607340      0.748815
O       5.91974      7.80326     14.93014        -0.480611     -0.477369      0.446250
O       5.81862      7.68348      6.55323         0.521465     -0.210763      0.473657
O       5.85717      7.68224     10.62879         0.008010      0.876297      0.335781
O       5.87774     11.57434      2.61744        -0.119422      1.445523      0.140791
O       5.98879     11.64217     14.85548        -0.099014      0.040735      0.365219
O       5.83273     11.54042      6.47002         0.181521      0.693956      0.108220
O       5.81508     11.64922     10.71094         0.364813      0.295728      0.042856
O       9.53848      3.87269      2.34700         0.217839     -0.751999      0.332019
O       9.68560      3.82042     15.17750         0.391848     -0.247002     -0.042096
O       9.73513     15.54519      2.65113         0.267337     -0.090732     -0.353248
O       9.87940     15.56665     14.99179        -0.563083      0.101180      0.141574
O       9.70051      3.92833      6.83623         0.325290      0.156896      0.323378
O       9.65946      0.00104      6.51130         0.070481     -0.513768      0.475251
O       9.78729      3.79932     10.87386        -0.319241      0.329031     -0.294512
O       9.68867     15.55206     11.05884        -0.192521      0.870243     -0.181407
O       9.83454      7.76015      2.50510        -0.205280     -0.214724     -0.054726
O       9.83499      7.78409     14.97550        -0.699818     -0.145041     -0.077848
O       9.65147      7.72273      6.62765         0.070955      0.868491      0.258419
O       9.80026      7.76640     10.99941        -0.607034      0.286163     -0.304169
O       9.68991     11.60445      2.53222        -0.141643      1.417353      0.124941
O       9.77968     11.64943     14.95867        -0.096235      0.814372      0.492729
O       9.70739     11.63276      6.63947        -0.291186     -0.324643      0.104126
O       9.63930     11.74601     10.91453         0.205251     -1.248210     -0.382160
