  # total energy = -7880.29149178 
CRSYTAL
PRIMVEC
    15.6080000000000005    0.0000000000000000    0.0000000000000000
     0.0000000000000000   15.6080000000000005    0.0000000000000000
     0.0000000000000000    0.0000000000000000   16.6239999999999988
PRESSURE
-0.506611 -0.336034 -0.53955 -0.045398 -0.047707 -0.064008
PRIMCOORD
320 1
Pb       3.77109      3.82873      4.09956         0.103698      0.046690     -0.053180
Pb       3.74989      3.75115      0.00088        -0.262584     -0.274726      0.121513
Pb       3.92806     15.43836      4.29949        -0.197860      0.306036     -0.216048
Pb       3.98095     15.57903      0.09412        -0.566340      0.087001     -0.447834
Pb      15.55015      3.85681      4.14837        -0.357197      0.204108     -0.295699
Pb      15.56378      3.96791     16.58393         0.227879     -1.022629      0.216632
Pb       0.11670     15.60309      4.27328        -0.138433      0.116314     -0.450385
Pb       0.00476     15.54035      0.02364         0.334397      0.504908     -0.089353
Pb       4.01614      4.04646      8.33242         0.098253      0.175669     -0.246638
Pb       3.88383      0.08729      8.50370         0.012931     -0.651461     -0.214695
Pb       0.11068      3.93872      8.22069        -0.851533      0.055065      0.994457
Pb       0.03646      0.09387      8.32312         0.053060     -0.658881      0.603680
Pb       3.95017      3.94599     12.29863        -0.765740     -0.119857      1.409905
Pb       3.91363      0.08392     12.31643        -0.605772     -1.351300      0.480457
Pb      15.50254      3.74237     12.26394         0.026639      0.706399      0.380866
Pb      15.41694     15.59046     12.34548         1.217860     -0.482329     -0.002339
Pb       3.91176      7.67779      4.25458        -0.296427      0.674299     -0.281421
Pb       3.83645      7.82780      0.01726        -0.517022      0.426388      0.110857
Pb      15.53579      7.76882      4.09551        -0.305317     -0.024592      0.533337
Pb       0.02561      7.79299      0.02786        -0.060431      0.103355     -0.371306
Pb       3.99834      7.86255      8.24724        -0.648052     -0.350142     -0.023475
Pb       0.17490      7.86420      8.03904        -0.463734      0.057394      0.730336
Pb       3.74763      7.83639     12.50673         0.136385     -0.019360     -0.230893
Pb       0.03008      7.74800     12.40000         0.293501     -0.042231     -0.458742
Pb       4.00045     11.61865      4.28231        -0.078655     -0.067751     -0.345549
Pb       3.91368     11.63979     16.57816        -0.289570      0.093210     -0.654309
Pb       0.07092     11.73262      4.23734        -0.313406     -0.108457     -0.203487
Pb       0.04357     11.66154      0.02005         0.040418      0.315606     -0.383783
Pb       3.88981     11.47079      8.27987         0.279902      0.984320      0.606198
Pb      15.50966     11.72567      8.39201         0.050666     -0.117251     -0.510755
Pb       3.77995     11.76406     12.61693         0.095080      0.269165     -0.520468
Pb      15.39118     11.66972     12.41278         0.599692      0.096862      0.174307
Pb       7.81940      4.07031      4.12013        -0.007299     -0.848289      0.123707
Pb       7.68366      3.69010      0.10041         0.077297      0.037406     -0.567284
Pb       7.80468      0.04187      4.13234         0.505535     -0.534651     -0.120344
Pb       7.80816     15.38367     16.56710        -0.014237      0.561582      0.726553
Pb       7.83177      3.99565      8.10446         0.200041     -0.607162      0.607891
Pb       7.72505     15.55428      8.41166         0.847730     -0.016283      0.181393
Pb       7.76251      4.17376     12.45029         0.452972     -1.462088      1.329630
Pb       7.81456      0.11821     12.46367         0.422751     -0.409966     -0.645213
Pb       7.67170      7.76468      4.05002         0.259861      0.493843      0.053872
Pb       7.92452      7.71314     16.61712        -0.176150      0.349604     -0.296573
Pb       7.72068      7.79228      8.43158         0.478394      0.060733     -0.627392
Pb       7.72206      7.93090     12.57912         0.333069     -0.285247      0.132129
Pb       7.73756     11.68421      4.12631         0.228899      0.157498     -0.398602
Pb       7.89157     11.49876      0.02861        -0.280362      0.253027      0.109026
Pb       7.66312     11.59042      8.42288         0.281567      0.249199      0.023792
Pb       7.70224     11.72253     12.55788        -0.304872      0.299010     -0.328962
Pb      11.56959      4.03074      4.02894         0.613178     -0.441854      0.217265
Pb      11.65463      3.68359     16.38011         0.458867      0.739262      1.219407
Pb      11.95781      0.21623      4.20131        -1.022406     -0.741695     -0.061455
Pb      11.76219     15.56936      0.04929        -0.269277     -0.500301      0.194986
Pb      11.71280      3.66824      8.08167        -0.391256      0.221963      1.147244
Pb      11.72405     15.38199      8.24022        -0.650435      0.726186      0.496717
Pb      11.55392      3.94104     12.39459         0.220606     -0.278155     -0.502114
Pb      11.88492      0.00825     12.54981        -0.697551     -0.367613     -1.191779
Pb      11.67192      7.92517      4.10036         0.385696     -0.088294     -0.127003
Pb      11.67005      7.73098     16.55302         0.133475      0.124922      0.210074
Pb      11.72682      7.77335      8.15618        -0.325119      0.686571      0.292886
Pb      11.90667      7.51144     12.40468        -1.071810      1.021103      0.184098
Pb      11.50234     12.05764      4.14094         0.693609     -0.486859      0.224726
Pb      11.75943     11.77516      0.01244        -0.054790      0.046968      0.563927
Pb      11.59002     11.50806      8.09532         0.285801      0.127088      0.369926
Pb      11.61275     11.55344     12.47824        -0.031006     -0.036734     -0.264376
Ti       1.92956      1.90470      2.17372        -0.533761     -0.244727     -1.004396
Ti       2.00238      1.92454     14.45019        -1.290422      0.052657      2.648156
Ti       1.90146     13.62673      2.22313         0.110476      0.470462      0.602079
Ti       1.90120     13.81908     14.62806         0.214415     -1.452456     -0.705403
Ti      13.67677      2.00980      2.15895        -0.027349     -0.054545      0.562676
Ti      13.69324      1.84528     14.62675         1.837265      0.531451      0.098081
Ti      13.68152     13.71675      2.29490        -1.499363     -0.740895     -0.601847
Ti      13.62036     13.64753     14.75550         0.388728     -0.785666     -0.882299
Ti       2.12827      1.92196      6.45641        -0.882118     -0.475796     -0.153769
Ti       1.98454     13.66024      6.45568         0.184222     -0.217548      0.427040
Ti      13.77499      1.88337      6.46823        -1.330825      0.436947     -0.504250
Ti      13.65816     13.64092      6.40317        -0.354583     -0.779530     -0.712347
Ti       1.95877      2.05805     10.43166        -1.509484     -1.252680      0.351460
Ti       1.84305     13.64497     10.46196         0.729624      0.216936      1.564172
Ti      13.59570      1.92994     10.43836        -0.190857     -0.264443      0.059217
Ti      13.60103     13.51472     10.41681        -0.787832      1.661955     -0.379062
Ti       1.94327      5.87151      2.27238        -0.775535     -0.277003     -0.688978
Ti       1.82022      5.82055     14.69562         0.746942      0.122411     -0.879045
Ti      13.64039      5.84460      2.24194        -0.783328      0.135817      0.074853
Ti      13.60918      5.75893     14.67330        -0.165782      0.142694     -0.397146
Ti       1.89138      5.72400      6.38315         0.432771      2.263064     -0.342958
Ti      13.50094      5.79113      6.47552         1.854891      0.602740     -0.988503
Ti       2.00331      5.86365     10.48453        -1.994352      0.629326     -0.604384
Ti      13.66891      5.87541     10.41739         0.391572     -1.103432     -0.407610
Ti       1.92021      9.74726      2.27466         1.105161      0.153719     -0.239274
Ti       1.84349      9.79304     14.63303         0.631000      0.407392      0.422861
Ti      13.76405      9.81978      2.13187        -1.797744      0.105390      1.258018
Ti      13.59600      9.72449     14.69531         0.022378      0.289234      0.031677
Ti       1.98556      9.87146      6.33600        -0.385333     -1.344872     -0.455822
Ti      13.69241      9.78880      6.19279        -0.152161     -0.447958      0.441963
Ti       2.00999      9.76965     10.49668        -0.508908     -0.109615      0.177494
Ti      13.66133      9.72575     10.43939        -0.425904     -0.183801     -0.716693
Ti       5.77297      1.91498      2.28308         0.390933     -0.112255     -0.606008
Ti       5.80848      1.86497     14.69741        -0.337071      0.576452      0.278984
Ti       5.72961     13.69886      2.21186         1.025735     -1.159334      1.540234
Ti       5.80955     13.67666     14.67937        -0.743967     -1.185992     -0.882545
Ti       5.90345      1.84234      6.37767         0.200857      0.924893     -0.293675
Ti       5.86290     13.63873      6.49445        -0.910643     -0.715495     -0.635701
Ti       5.81249      1.92338     10.52095         1.046054     -0.722977      0.183233
Ti       5.76101     13.58731     10.48925         0.482688     -0.486354      1.078873
Ti       5.72505      5.75371      2.11360         0.292415      0.944712      2.665041
Ti       5.65368      5.77123     14.85621         0.901993     -0.208079     -1.589369
Ti       5.82971      5.85173      6.24069        -0.255590     -0.059585      0.082040
Ti       5.85200      5.82080     10.67500        -0.608650      1.458974     -1.099737
Ti       5.78801      9.71217      2.18899         0.281945      0.001317     -0.174088
Ti       5.77534      9.60646     14.71921         0.080815      1.558907     -1.143865
Ti       5.94302      9.72074      6.38079        -0.685152     -0.020942      0.096453
Ti       5.87511      9.68718     10.61450        -1.256652      0.969482     -0.042771
Ti       9.70130      1.95763      2.20360         0.697222     -0.266810      0.202491
Ti       9.73540      1.83077     14.74501        -0.675885      0.236333     -1.240485
Ti       9.62835     13.69375      2.20135         1.152610     -0.223396     -0.266599
Ti       9.65256     13.62132     14.70794         0.736665     -0.306108      0.010196
Ti       9.72809      1.97100      6.22332         0.650527     -0.585644      1.041572
Ti       9.61463     13.68520      6.50434         1.004565      0.380992     -1.589934
Ti       9.71030      1.90493     10.46183         0.506519     -0.386422      0.156020
Ti       9.73128     13.52745     10.53303        -0.272234      1.488885     -0.650084
Ti       9.68422      5.91498      2.18822         0.975951     -0.381304     -0.192977
Ti       9.67955      5.75662     14.77593        -0.364182      0.536671     -1.116948
Ti       9.71892      5.89424      6.29946        -0.003209      0.455510      0.820100
Ti       9.65923      5.80638     10.42033         1.879499      0.247883      0.289550
Ti       9.76450      9.76159      2.30070         0.228349      0.090606     -0.431952
Ti       9.78270      9.78653     14.74233        -0.257379     -0.663102     -1.099903
Ti       9.63299      9.76297      6.29547         0.653193     -1.528846     -0.388357
Ti       9.74582      9.59395     10.62189         1.028521      0.311521     -0.229148
O       2.03532      1.85632      0.34740        -0.215837      0.042473      1.738377
O       1.87471      1.94706     12.74046         0.228243      0.353559     -1.474494
O       1.89373     13.80049      0.47766         0.106987     -0.307785     -0.175269
O       1.93994     13.63807     12.82019        -0.065501     -0.076650      1.005172
O      13.80606      1.98959      0.40430        -0.623626     -0.133033     -0.597107
O      13.82918      1.70148     12.79423        -0.901856      0.384596      0.886801
O      13.65961     13.65023      0.44447         0.002244      0.060875      0.538588
O      13.76206     13.80013     12.87913        -0.584497     -0.444288      1.184561
O       1.94931      1.90570      4.68034        -0.015571      0.257441     -0.138968
O       1.88632     13.65873      4.64621         0.439668      0.196409     -0.244497
O      13.58716      1.83361      4.67437         0.972424      0.348690      0.180990
O      13.47268     13.61693      4.56806         0.919074      0.329588      0.215956
O       2.05114      1.96889      8.65013        -0.090333     -0.063412     -0.378490
O       1.79397     13.72143      8.72257         0.352310     -0.408631     -0.671419
O      13.53390      1.91252      8.66807         0.317559     -0.018456     -1.029864
O      13.64728     13.47464      8.59508        -0.061141      0.336102      0.698404
O       1.88919      5.86231      0.44107        -0.122176      0.409287      0.860003
O       1.81764      5.86086     12.87696         0.021231     -0.022742      1.038758
O      13.68954      5.77999      0.47367        -0.127752      0.157613     -0.608751
O      13.72548      5.73649     12.89617        -0.406291      0.448669     -0.270804
O       1.91841      5.79207      4.56697        -0.082284     -0.310996      0.304077
O      13.63394      5.77839      4.71151        -0.006321      0.153620     -0.802605
O       2.02513      5.91318      8.68334         0.157254     -0.175426     -0.156670
O      13.56070      5.78459      8.66644         0.275757      0.311422      0.060621
O       2.02320      9.75729      0.46377        -0.436557     -0.070279      0.321518
O       1.88681      9.68861     12.85429         0.094362      0.160973     -0.231346
O      13.72027      9.79938      0.35044        -0.013661     -0.322084     -0.423244
O      13.38928      9.90762     12.91126         0.908334     -0.363793      0.327653
O       1.91708      9.83376      4.55634         0.411458      0.369218     -0.296000
O      13.62311      9.77742      4.43094         0.138593     -0.068836      0.456186
O       1.92890      9.70422      8.71059         0.134541      0.283783     -0.604562
O      13.66160      9.71583      8.64136        -0.158503      0.326458      0.675299
O       5.75283      2.04138      0.47921        -0.067234     -0.361836      0.492972
O       5.67765      1.66892     12.94570         0.686178      0.753964     -0.895260
O       5.81892     13.71844      0.49777        -0.152929     -0.152138     -1.328300
O       5.81467     13.67582     12.87136         0.084695      0.222742      0.320630
O       5.87478      1.99615      4.58250        -0.080284     -0.488657      0.524438
O       5.76595     13.72974      4.64995         0.136049     -0.248896      0.607055
O       5.76443      1.93584      8.77267         0.156615      0.344352     -0.794204
O       5.94595     13.61080      8.73752        -0.226918     -0.417118     -1.218740
O       5.61311      5.85940      0.40706         0.358421     -0.204481     -1.519531
O       5.72237      5.74510     12.96159         0.137392      0.038884      0.516321
O       5.80129      5.86299      4.42531         0.052907     -0.164878      1.426866
O       5.79530      5.92364      8.86131        -0.012389     -0.536259      0.667704
O       5.66042      9.70754      0.37610         0.472270      0.442473     -0.038651
O       5.78444      9.75477     12.81990         0.082112     -0.654204      1.425813
O       5.92919      9.60096      4.61833        -0.094860      0.666504     -0.621095
O       5.92983      9.67246      8.76723        -0.133683     -0.058926      0.087976
O       9.79255      1.82452      0.41913        -0.125221      0.513308     -0.498981
O       9.69875      1.78491     12.94077         0.075191      0.277810      0.759718
O       9.73016     13.55838      0.37326        -0.352925      0.392331      0.592549
O       9.59729     13.57449     12.93218         0.342558      0.251475     -0.028920
O       9.63122      2.10525      4.45983         0.075589     -0.688257     -0.271062
O       9.60268     13.64308      4.63432         0.028858     -0.518989      0.376755
O       9.70545      1.95299      8.70812        -0.038215     -0.026452      0.002838
O       9.76371     13.78910      8.68368        -0.137472     -0.803578      0.288171
O       9.71465      5.90805      0.38528        -0.181969      0.253190     -0.026693
O       9.73931      5.72029     12.96008        -0.116903      0.012211      0.013941
O       9.73424      5.83156      4.53145        -0.266838     -0.107765     -0.489937
O       9.69612      5.98678      8.67664        -0.371583     -0.560649      0.016947
O       9.53061      9.69817      0.48012         0.410210     -0.048376     -0.949735
O       9.85438      9.86607     12.89913        -0.428010     -0.166169      0.713650
O       9.51888      9.69258      4.50288         0.229784      0.128710      0.143447
O       9.78109      9.57632      8.85551        -0.436605      0.178697     -0.481568
O       3.81904      1.82042      2.58071         0.847542      0.138354      0.119418
O       3.83207      1.75373     14.96028         0.528379      0.490684     -0.084099
O       3.84880     13.89012      2.55474        -0.514534     -0.839270     -0.165126
O       3.90665     13.79321     15.07546        -0.684965      0.189646     -0.211402
O      15.60266      2.07858      2.50135         0.129859     -0.286102      0.399253
O       0.03964      1.94323     14.92500        -0.881617      0.407344     -0.099968
O      15.50298     13.57024      2.58376         1.041365      0.241735      0.131983
O       0.04056     13.46554     15.04903        -0.593410      0.587518     -0.112959
O       3.96492      1.89845      6.73111         0.626692      0.714757     -0.316972
O       3.90565     13.51680      6.82690         0.664041      0.679153     -0.307764
O       0.02086      1.87204      6.77422         0.148328      0.238271     -0.457141
O       0.08760     13.55804      6.68431        -1.016955      0.190681     -0.189979
O       3.79370      1.86367     10.81916         1.309170      0.572188     -0.275866
O       3.88332     13.70935     10.85260        -0.551325     -0.375528     -0.501804
O      15.59565      2.06954     10.64890         0.476023     -0.587391     -0.115059
O      15.50390     13.39215     10.74845         0.762105      0.375532     -0.052075
O       3.82925      5.88283      2.63955         0.052556     -0.027604     -0.599242
O       3.76693      6.09627     15.05024         0.436009     -1.011721     -0.532894
O      15.50029      5.79628      2.55976         1.435458      0.056499      0.252208
O      15.53649      5.77400     15.05928         0.085135      0.346426     -0.107648
O       3.88064      5.84577      6.71606         0.639415     -0.478913     -0.514579
O      15.59417      5.86292      6.77704         0.736825     -0.257959     -0.470126
O       3.78261      5.86863     10.98272         1.964860     -0.240992     -0.343772
O      15.60399      5.83470     10.66725        -0.757354     -0.143899      0.417699
O       3.85391      9.63068      2.56000         0.298313      0.696049      0.413210
O       3.82931      9.81725     14.92500         0.888134     -0.995659      0.133646
O       0.03972      9.85036      2.47404        -0.754986     -0.405510      0.112286
O      15.56500      9.85379     14.99403        -0.585051     -0.003729     -0.216186
O       3.97025      9.83847      6.60820         0.035810     -0.469938      0.143228
O       0.02734      9.89792      6.43337        -0.278457     -0.183693      0.675687
O       3.86690      9.60131     10.72449         0.246378     -0.088215      0.385685
O      15.58296      9.80200     10.81596        -0.531938      0.015210      0.139239
O       7.74850      1.98070      2.38580        -0.084724      0.149218      0.352331
O       7.79421      1.99392     15.02284         0.031726     -0.109923      0.090263
O       7.77717     13.52257      2.46396        -0.308208      0.433069      0.242591
O       7.70891     13.57439     15.00949         0.923765      0.431435      0.136122
O       7.87074      1.93699      6.67725        -1.642809      0.101632     -0.018490
O       7.79049     13.61891      6.78483        -1.054945     -0.082911      0.057507
O       7.67604      1.99588     10.85894         0.266179     -0.260689      0.003126
O       7.78994     13.48815     10.78880        -0.147720      0.415032      0.210009
O       7.77218      5.67569      2.49163        -0.839794      0.890290     -0.707214
O       7.69818      5.75032     14.99282         0.164667     -0.096657      0.377937
O       7.75962      5.83788      6.62293        -0.170108     -0.064259     -0.279913
O       7.79911      5.76957     10.89547        -0.935219      0.633013     -0.521429
O       7.76898      9.77854      2.42311        -1.335195      0.062214      0.389239
O       7.75949      9.81833     14.88069        -0.243157     -0.257615      0.338697
O       7.77804      9.64240      6.82729        -0.085766     -0.151014     -0.063220
O       7.75784      9.72102     10.91333         0.470940     -0.126755      0.099323
O      11.72062      1.98509      2.46403        -0.285037     -0.306043      0.095830
O      11.74437      1.79745     14.90697        -0.151128     -0.170882      0.141183
O      11.67133     13.69057      2.49413        -0.011495      0.021517     -0.000026
O      11.69540     13.68294     15.05409        -0.064070      0.392020     -0.361798
O      11.63128      1.85606      6.60141         0.199181     -0.196432     -0.083479
O      11.70740     13.73712      6.62099        -0.533873     -1.013980      0.167867
O      11.72075      1.98837     10.80502        -0.716961     -0.669404      0.433415
O      11.68994     13.79624     10.81729         0.241128     -0.343936      0.083603
O      11.64308      5.84483      2.48460         0.134200      0.401426      0.156550
O      11.67912      5.78460     15.00072         0.496518      0.389199      0.030440
O      11.68511      5.78976      6.69893        -0.885105      0.578277     -0.211777
O      11.69089      5.82135     10.74042         0.210646      0.145250      0.563361
O      11.64502      9.52232      2.40634        -0.167719      0.444872     -0.066468
O      11.63723      9.68791     15.12497         0.233718      0.180656     -0.063337
O      11.56181      9.64620      6.56122         0.752898      0.292819      0.108068
O      11.67316      9.64215     10.85513         0.321883      0.283191     -0.113111
O       1.97515      3.87707      2.37504         0.231468      0.287092      0.788641
O       2.02389      3.89269     15.05040        -0.258550      0.397170     -0.742982
O       1.73184      0.01246      2.60632         0.199580     -0.333202     -0.087099
O       1.73598      0.05078     14.84977         0.430893     -0.706234      0.046554
O      13.63106      3.87974      2.60509        -0.024452      0.429814      0.048883
O      13.58296      3.77790     14.81316         0.068550      0.366350      0.446942
O      13.68176      0.05242      2.57954         0.249755     -0.304067     -0.297573
O      13.75527     15.52273     15.15418        -0.403408      0.819003     -0.676513
O       1.88851      3.91173      6.72207         0.712476     -0.867404     -0.341937
O       2.10549      0.01140      6.77484        -0.576685     -0.188384     -0.377114
O      13.63242      3.86163      6.65040         0.410502     -0.703742      0.226241
O      13.66164     15.50231      6.75216         0.570492      1.060876     -0.235123
O       1.95245      3.93621     10.61137         0.314257     -0.578680      0.583821
O       1.81731     15.57435     10.73974         0.103768      0.095420     -0.338501
O      13.65236      3.78815     10.80469        -0.186687      1.602231      0.160554
O      13.78861     15.56010     10.68917        -0.361770     -0.087388     -0.101555
O       1.84726      7.80257      2.65022         0.021155     -0.446433     -0.580663
O       1.79039      7.87917     15.01380        -0.074526     -0.847745      0.014818
O      13.64914      7.84190      2.57522         0.464942     -0.915128     -0.318186
O      13.58930      7.79676     14.86010         0.287184     -0.395624      0.382083
O       2.08167      7.88147      6.60990        -0.517445     -0.346603     -0.032921
O      13.72666      7.87703      6.59329        -0.415326     -0.475214      0.041034
O       1.87300      7.74633     10.82296        -0.013767      0.633323      0.386181
O      13.67780      7.82852     10.82557        -0.030395     -0.999356      0.032299
O       1.85951     11.73215      2.52896         0.779909      0.308927     -0.023430
O       2.06196     11.72017     14.95562        -0.250854     -0.018319      0.215706
O      13.47358     11.62772      2.48096         0.470189      0.707565     -0.181493
O      13.47468     11.72568     14.98856         0.532922     -0.157845     -0.075238
O       2.12956     11.71460      6.71736        -0.847063      0.072497     -0.064464
O      13.57742     11.68642      6.62609         0.034431     -0.299646     -0.004102
O       2.07524     11.65492     10.75162        -0.365937      0.201676      0.138411
O      13.57561     11.68070     10.67527        -0.374054     -0.787034      0.649204
O       5.67850      3.91840      2.52224         0.108662     -0.668379     -0.190854
O       5.70324      3.82830     15.07043        -0.211314      0.631677     -0.150075
O       5.92119     15.55114      2.54832        -0.138470      1.327938      0.153741
O       5.89417      0.06792     15.13281         0.199916     -1.188958      0.049792
O       5.93425      3.93619      6.74092        -0.750558     -0.444736     -0.381118
O       5.81400     15.53536      6.75942         0.275523      1.346323     -0.200179
O       5.79922      3.89283     10.92843        -0.430686     -0.242024     -0.467669
O       5.75273     15.50454     10.57533         0.426992      1.697801      0.917732
O       5.78570      7.82401      2.48880         0.341346     -0.943014     -0.134430
O       5.87117      7.76404     15.04512        -0.181652      0.278365     -0.284442
O       5.80487      7.76335      6.61053         0.092053     -0.538233      0.250773
O       5.76622      7.75106     10.91400         0.669125     -0.432733      0.280198
O       5.77342     11.70923      2.62183        -0.516151     -0.210138     -0.162887
O       5.72866     11.77076     14.86616        -0.040113     -0.499388      0.611629
O       5.91104     11.65073      6.65557         0.241748      0.173931      0.098145
O       5.73022     11.62551     10.80422         0.251800     -0.047790      0.119294
O       9.76357      3.91371      2.43166        -0.358477     -0.221274      0.018723
O       9.85003      3.88481     14.95372        -0.468066     -1.374008      0.350067
O       9.75523     15.54973      2.57458        -0.758602      0.977922     -0.296337
O       9.71617     15.52930     15.07642        -0.202017      0.382658     -0.285257
O       9.85459      3.92668      6.52111        -0.937573     -0.428005      0.478566
O       9.63525     15.54777      6.60807         0.055442      0.813577     -0.070914
O       9.80662      3.89438     10.73574        -0.599610      0.225655      0.486253
O       9.64621      0.03730     10.77736        -0.316289     -0.082182      0.383201
O       9.62702      7.79406      2.64533        -0.137726     -0.924384     -0.762538
O       9.65126      7.77934     14.92728         0.060730      0.119177      0.463004
O       9.67599      7.72833      6.69768         0.161110      0.248916     -0.352294
O       9.68638      7.72070     10.94259        -0.289005     -0.174406      0.092274
O       9.81141     11.66689      2.50058        -0.402596      0.355971      0.116144
O       9.76846     11.70332     14.99242        -0.085581     -0.318661      0.325605
O       9.58295     11.54805      6.61656         0.438985      1.661409      0.609913
O       9.80253     11.72327     10.71359         0.100546     -1.026558      0.281437
