  # total energy = -7881.66255029 
CRSYTAL
PRIMVEC
    15.6080000000000005    0.0000000000000000    0.0000000000000000
     0.0000000000000000   15.6080000000000005    0.0000000000000000
     0.0000000000000000    0.0000000000000000   16.6239999999999988
PRESSURE
-0.832554 -0.817368 -0.619894 -0.080914 0.044939 -0.054582
PRIMCOORD
320 1
Pb       4.02234      3.89498      4.21871        -0.329222     -0.056068     -0.179230
Pb       3.91553      3.91630     16.60514        -0.153701      0.064665     -0.272357
Pb       3.94019      0.05644      4.10175        -0.436318      0.173935     -0.291810
Pb       3.83266     15.56479     16.50210         0.039193      0.293718      0.785230
Pb      15.54792      3.86353      4.10005         0.265671     -0.658396      0.427433
Pb      15.57339      3.79831     16.60248         0.287498     -0.073259     -0.252889
Pb      15.57798     15.57654      4.07809        -0.270763      0.738803     -0.046864
Pb       0.01680      0.02123     16.61155        -0.218686      0.041004      0.180460
Pb       3.85025      3.85297      8.25896         0.240456      0.208051      0.565939
Pb       3.98657      0.07850      8.27181        -0.700230      0.055312     -0.205728
Pb      15.52722      3.93456      8.24446         0.362145     -0.629215      0.498951
Pb       0.04071     15.57895      8.25395        -0.025577      0.466461      0.102618
Pb       3.69997      3.97879     12.63750         0.322120     -0.114153     -0.687667
Pb       3.81455     15.47539     12.53013         0.805278      0.150190     -0.630152
Pb      15.56887      3.91125     12.53093         0.394338     -0.303358     -0.686790
Pb       0.12806     15.58444     12.47204        -0.816051      0.090796     -0.309813
Pb       3.74109      7.86772      4.00261         0.638622      0.414632      0.761146
Pb       3.85917      7.65896     16.58338         0.051616      0.503665     -0.814605
Pb       0.03731      7.87976      4.05025        -0.087368      0.111179      0.454032
Pb      15.53892      7.75890     16.60704         0.101239      0.048528     -0.632815
Pb       3.91168      7.77487      8.34146         0.217648     -0.130901     -0.367226
Pb      15.39178      7.75070      8.51695         0.363625     -0.125755     -0.577269
Pb       3.91101      7.85314     12.48214        -0.379057     -0.361905     -0.054951
Pb      15.42290      7.72421     12.49291         0.272570      0.141493      0.359312
Pb       3.87684     11.71094      4.09228        -0.008294     -0.375540      0.145133
Pb       3.89482     11.66714     16.54033         0.160455      0.032775      0.190153
Pb      15.57235     11.78877      4.11410        -0.013667     -0.732342     -0.005412
Pb      15.58805     11.80644      0.04030         0.289156     -0.323384     -0.050322
Pb       3.84460     11.86753      8.32617         0.337044     -0.826091     -0.641224
Pb      15.53828     11.66278      8.13704         0.018325     -0.035333      0.631750
Pb       3.86068     11.72330     12.34075         0.388524     -0.162894      0.198304
Pb       0.03445     11.55337     12.41937        -0.540514      0.103561     -0.448856
Pb       7.75084      3.70458      4.13580        -0.119781      0.654746     -0.122930
Pb       7.73030      3.85050     16.55390        -0.010572     -0.254720     -0.105926
Pb       7.75767     15.49670      4.13986         0.214469      0.203084     -0.611018
Pb       7.79987      0.04630     16.61047        -0.097027     -0.563595     -0.459889
Pb       7.72736      3.82173      8.51426        -0.305653      0.495296     -0.644140
Pb       7.86149     15.56396      8.36939         0.009850      0.296232     -0.537180
Pb       7.78343      3.72840     12.48735         0.473514      0.275629      0.460858
Pb       7.86411      0.00028     12.51617        -0.250182     -0.017395      0.099690
Pb       7.83386      7.80627      4.06093        -0.005002     -0.027864      0.023604
Pb       7.72362      7.82651     16.53995         0.299836      0.054884      0.153214
Pb       7.94509      7.86709      8.23756        -0.860674     -0.454544      0.963375
Pb       7.93492      7.62611     12.42531        -0.246839      0.236014      0.407553
Pb       7.83632     11.74819      4.04641        -0.109883     -0.562493      0.074457
Pb       7.77047     11.70708     16.48930         0.003644      0.204418      0.793825
Pb       7.70804     11.70738      8.26845        -0.019278     -0.404209     -0.392474
Pb       7.82224     11.57810     12.44305        -0.326794     -0.093585     -0.107582
Pb      11.76769      3.87486      4.30047        -0.277736     -0.253037     -0.045383
Pb      11.74288      4.07204      0.18632         0.176351     -0.457689     -0.518618
Pb      11.50815      0.02741      4.17884         0.637906     -0.104664     -0.290710
Pb      11.64438     15.59676     16.52424         0.447305     -0.489710      0.256300
Pb      11.64437      4.07983      8.40469         0.003900     -0.408205     -0.592958
Pb      11.53387      0.02111      8.30999         0.623914      0.153870      0.039891
Pb      11.80213      3.75521     12.45601        -1.132774      0.161862      0.941498
Pb      11.60385     15.48785     12.37393         0.316804      0.240990      0.072735
Pb      11.71532      7.62409      3.99122        -0.645716      0.510821      0.541005
Pb      11.67444      7.81513      0.02309         0.044504     -0.352408     -0.482879
Pb      11.65783      7.82256      8.22469        -0.201480      0.224836      0.013724
Pb      11.49278      7.92276     12.50157         0.844041     -0.563413      0.259986
Pb      11.77122     11.50902      4.28821        -0.197896      0.438699     -0.568317
Pb      11.87175     11.69275     16.58656        -0.659468      0.231780      0.149338
Pb      11.76318     11.83826      8.40236        -0.023612     -0.331335     -0.060065
Pb      11.68082     11.72000     12.37655         0.483538      0.137483     -0.407500
Ti       1.91906      2.02991      2.11049        -0.068784     -0.950757      0.367158
Ti       1.97881      1.91498     14.51692        -0.639987      0.613520      1.679860
Ti       1.92050     13.75173      2.19034        -0.414054      0.057123     -0.977659
Ti       1.84552     13.62062     14.63000         0.720220     -0.276799      2.047147
Ti      13.53480      1.92356      2.18975         0.958994     -0.381056     -0.427375
Ti      13.70410      1.81240     14.62370        -0.216725      0.525456      1.124956
Ti      13.58493     13.65459      2.26474        -0.597148      0.257259      0.162387
Ti      13.69580     13.57758     14.63032        -0.981263      0.394290      0.125614
Ti       1.95355      1.92394      6.32614        -0.490599     -0.031236     -0.430743
Ti       1.91812     13.58882      6.29955         0.544638      0.818539      0.083066
Ti      13.61100      1.90274      6.51000         0.249843     -0.018971      0.220725
Ti      13.60703     13.62578      6.41887        -0.624747      0.466746     -0.473037
Ti       1.94254      1.87825     10.53071         0.295061      1.195791     -0.159444
Ti       1.92563     13.55111     10.41818        -0.259092      0.802280      0.376323
Ti      13.65706      1.96585     10.55522         0.191295     -0.825820     -0.849078
Ti      13.73715     13.72457     10.50698        -0.915747     -0.673970     -0.167415
Ti       2.02410      5.78220      2.25932        -1.092829     -0.389260     -0.885402
Ti       1.86905      5.85495     14.68637         0.762415      0.174858      0.446347
Ti      13.71667      5.78369      2.28981        -0.980907     -0.684256     -1.371160
Ti      13.63894      5.63800     14.64798        -0.045635      1.642015      0.290673
Ti       1.88644      5.80282      6.44864         0.632014     -0.177314     -0.483829
Ti      13.57991      5.87895      6.44987         0.357519     -0.559595      0.621604
Ti       1.95403      5.82377     10.48084         0.148561     -0.789799      1.089222
Ti      13.60182      5.82730     10.64404        -0.110384      0.540880     -0.579499
Ti       1.96900      9.80044      2.07186        -0.330614      0.362973     -0.699314
Ti       1.92964      9.75129     14.62124        -0.307339     -0.529845      0.877635
Ti      13.62351      9.69692      2.16555         0.323372      0.789294      0.509683
Ti      13.63004      9.68051     14.70877         0.376329     -0.654264     -0.325549
Ti       1.97165      9.65650      6.42152         0.495382      0.081829      0.237694
Ti      13.73532      9.69360      6.27585        -0.710125      0.336648      0.571196
Ti       1.99464      9.67061     10.48698        -0.081626     -0.182994      0.160339
Ti      13.69570      9.67197     10.45010        -0.621473      1.148561      1.243021
Ti       5.81679      1.92626      2.06688        -0.472612      0.509434      0.306951
Ti       5.80920      1.84671     14.66777         0.798270     -0.013553      0.393382
Ti       5.80110     13.64728      2.21094         0.400286      0.003974     -1.301258
Ti       5.81337     13.63512     14.66632         0.281468     -0.206536      0.520955
Ti       5.88666      1.96430      6.37243        -0.256444      0.718612     -0.403190
Ti       5.81211     13.67157      6.23723        -0.025108     -0.930174      0.181452
Ti       5.79467      1.88960     10.66700        -0.669421      0.056882     -0.046902
Ti       5.93521     13.63977     10.46269        -1.175613      0.565576      2.133109
Ti       5.79502      5.94354      2.12334         1.319957     -0.988224     -0.328363
Ti       5.92129      5.77459     14.64363        -1.042792      0.642863      1.413399
Ti       5.81519      5.82506      6.34224        -0.344684     -0.031669      0.458773
Ti       5.82069      5.76866     10.67741         0.018990     -0.233080     -1.769964
Ti       5.87012      9.80896      2.12689        -0.213233      0.204815      0.598952
Ti       5.78477      9.75644     14.58964         0.594740      0.131957      0.130883
Ti       5.83646      9.67721      6.32917        -0.577329      0.511398     -0.526431
Ti       5.87097      9.64546     10.52965         0.020472      1.013859     -0.503023
Ti       9.68454      1.90858      2.14122         0.623279     -0.593606      0.574451
Ti       9.91816      1.92753     14.74081        -0.473466      0.001981     -1.398391
Ti       9.77187     13.58555      2.26542         0.585269     -0.206915     -0.211092
Ti       9.74269     13.58085     14.63916         0.312019      0.613851     -0.001814
Ti       9.70230      2.00325      6.38488         0.360009      0.674908     -0.070636
Ti       9.73201     13.66560      6.29563        -0.215109     -0.282314      0.043293
Ti       9.76312      1.93941     10.56711         0.345761     -0.077199      0.192851
Ti       9.63718     13.62448     10.43919         2.031448      0.113828     -0.126897
Ti       9.67978      5.69889      2.20441         0.086435      2.097618     -0.417354
Ti       9.78328      5.73112     14.80351         0.339623      0.787492     -1.243764
Ti       9.59280      5.89764      6.32042         0.295757     -1.083606     -0.454062
Ti       9.78915      5.80920     10.59947        -0.509842     -0.319466     -0.027549
Ti       9.74325      9.69728      2.21607        -0.133213      0.547466     -0.649538
Ti       9.68047      9.75780     14.77016         0.619097     -0.450296      1.013652
Ti       9.77524      9.78140      6.38830         0.271206      0.173873     -1.121189
Ti       9.77036      9.71618     10.52077         0.267739      0.260409     -1.604306
O       1.80902      1.97239      0.33424         0.230340     -0.019066     -0.237430
O       1.95053      1.95864     12.76623        -0.128793     -0.032655      0.053130
O       1.62196     13.81030      0.33510         0.760505     -0.489266      1.239225
O       1.84011     13.51580     12.90703         0.294493      0.329429     -1.343075
O      13.67172      1.95891      0.38230        -0.261162      0.149014      0.666177
O      13.62081      1.80181     12.89296        -0.049143      0.386077     -1.645407
O      13.67369     13.72978      0.49482         0.186011     -0.367056     -0.643116
O      13.70900     13.58872     12.87414        -0.014485     -0.281488     -0.474696
O       1.99208      1.86301      4.49376        -0.114434      0.116546      0.770839
O       2.06516     13.66116      4.48672        -0.537204     -0.090223      0.289549
O      13.59098      1.89434      4.76104         0.059153      0.141340     -0.691402
O      13.46168     13.62694      4.64499         0.412232      0.198178      0.112783
O       2.08608      1.82522      8.74912        -0.441235      0.029407      0.238934
O       1.90762     13.60317      8.64734         0.117978     -0.004374      0.103039
O      13.79650      1.98848      8.76988        -0.571195      0.015894      0.869056
O      13.71136     13.44975      8.73304         0.005988      0.159137     -0.696550
O       1.97519      5.84290      0.46561         0.215168      0.026363      0.442489
O       1.97102      5.90900     12.93079        -0.471657     -0.410462     -0.863036
O      13.55411      5.68994      0.45544         0.382373     -0.080867      0.780738
O      13.68589      5.74321     12.85385         0.227231      0.210078      0.114673
O       1.90707      5.58243      4.67545        -0.150788      0.877113     -0.903336
O      13.63153      5.71730      4.71273         0.085685      0.074714     -1.070442
O       2.05149      5.65289      8.73504        -0.294456      0.804503     -0.014494
O      13.62138      5.95735      8.80917        -0.263193     -0.279399     -0.070320
O       2.11260      9.78690      0.27521        -0.605534     -0.367342      1.197053
O       2.08236      9.78522     12.81863        -0.671673     -0.069950      0.458632
O      13.54205      9.61824      0.39056         0.209036      0.172408      0.507364
O      13.68717      9.59358     12.90433         0.030288      0.484379      0.419707
O       1.90539      9.70533      4.66033        -0.131291     -0.160279     -1.282122
O      13.81274      9.71784      4.50893        -0.310109     -0.039679     -0.439637
O       2.06006      9.69244      8.72752        -0.064200      0.170402     -0.687358
O      13.73314      9.81394      8.67844        -0.164080     -0.892156     -0.362847
O       5.78723      1.95182      0.27967         0.372243     -0.373454      0.083641
O       5.89535      1.76757     12.90914         0.187397      0.284730     -0.187486
O       5.94537     13.59945      0.43445        -0.255286      0.079807      0.310383
O       5.66974     13.73924     12.92028         0.289431     -0.202712     -0.665137
O       5.89684      2.13508      4.53972        -0.164299     -0.652853      0.918592
O       5.66336     13.58108      4.43292         0.259006      0.388751      0.903629
O       5.83970      2.02734      8.84769         0.270138     -0.570165      0.035334
O       5.89705     13.72497      8.73390         0.072050      0.151312     -1.257153
O       5.76840      5.78918      0.29520        -0.151572      0.448286      1.068703
O       5.85203      5.77412     12.91794         0.433697      0.451479     -0.947704
O       5.83111      5.70370      4.55276         0.003497      0.244224      0.097913
O       5.77383      5.75246      8.84529        -0.002510      0.110282      1.220651
O       5.80546      9.87209      0.38172        -0.019041     -0.020420     -0.276795
O       5.97492      9.87967     12.78520        -0.257549     -0.331168      0.323129
O       5.83104      9.73592      4.51630         0.136588      0.144609      0.599292
O       5.76360      9.75846      8.73619         0.090451     -0.163327      0.094699
O       9.81982      1.95985      0.35939        -0.219653     -0.200203      0.252582
O      10.02065      1.83210     12.88906        -0.872149     -0.182834      1.106243
O       9.86521     13.63848      0.51777        -0.276218     -0.059774     -1.107254
O       9.90803     13.77456     12.84559        -0.668163     -0.810112      0.069790
O       9.63311      1.95846      4.58836        -0.150627     -0.239189      0.012943
O       9.78401     13.74910      4.45753        -0.250383     -0.322406      1.280290
O       9.67166      2.05562      8.76986         0.168953     -0.122220     -0.286352
O       9.53596     13.58467      8.62587         0.399906      0.477073      0.848871
O       9.87706      5.78332      0.35889        -0.341826     -0.313153      0.590522
O       9.73360      5.93919     12.99393        -0.009321      0.183760     -0.008564
O       9.50733      5.93275      4.50209         0.447008      0.048585      0.567284
O       9.73157      5.80428      8.81612         0.422696     -0.156331     -0.098747
O       9.62659      9.85167      0.41802         1.044451     -0.414198      0.405745
O       9.71656      9.67145     13.01249        -0.003276      0.138970     -1.707106
O       9.66635      9.66228      4.54360        -0.114348      0.254154      1.120027
O       9.88427      9.67205      8.71123        -0.405641      0.124571      0.295897
O       3.89542      1.95989      2.35547        -0.169988     -0.417683      0.345852
O       3.90536      1.85110     14.78224        -0.059877      0.222278      0.503145
O       3.76555     13.81713      2.34276         0.285606     -0.422759      0.063247
O       3.92569     13.73946     15.22159        -1.090914     -0.965126     -1.338288
O      15.45442      2.03067      2.47073         0.942940      0.097332      0.329758
O       0.01111      2.02546     14.81764         0.500442     -0.301445      0.186831
O      15.50591     13.55052      2.70216         0.757259      0.912870     -0.404790
O      15.56207     13.62465     14.95821         0.842047     -0.011399     -0.073826
O       3.86757      2.03720      6.68719         1.240352     -0.484364     -0.324324
O       3.89136     13.53875      6.64117         0.308285      0.302488      0.026035
O       0.02961      1.84668      6.68402         0.205073      0.193183      0.076084
O      15.51342     13.62251      6.51143         1.322318     -0.081095      0.170738
O       3.92401      2.02507     10.86821        -0.319522     -0.594552      0.158925
O       3.84297     13.72082     10.81227        -0.080706     -0.544078     -0.407064
O      15.57560      1.96846     10.90759        -0.188958      0.107828     -0.007620
O      15.58923     13.56591     10.79784         0.922250      0.149585      0.288729
O       3.89199      5.71530      2.55801         0.203210      0.666433     -0.166565
O       3.85749      5.91907     14.87338         0.740957     -0.177811      0.631631
O      15.55925      5.59647      2.49856         0.409641      0.673929      0.087720
O      15.60540      5.83961     15.03792        -0.592893     -0.582765     -0.022631
O       3.84300      5.64148      6.69816         0.937068      0.690842     -0.283593
O      15.57640      5.90746      6.90541        -0.215409     -0.214152     -0.583924
O       3.93009      5.69365     11.02365        -0.290311      0.647503     -0.434137
O      15.56851      5.90925     10.84276         0.946286     -0.334097     -0.245406
O       3.84193      9.82323      2.42270        -0.310547     -0.737593      0.543377
O       3.94458      9.66442     14.93624        -0.749367      0.503894     -0.339001
O      15.56247      9.60138      2.42351         0.187360      0.395956     -0.157752
O       0.03982      9.76785     15.02682         0.118110     -0.164811     -0.222812
O       3.89981      9.77251      6.49710         0.416998      0.231977      0.728251
O       0.01723      9.69895      6.65785        -0.269731     -0.047428      0.260611
O       3.90925      9.80248     10.89702         0.774284      0.192158     -0.229411
O       0.05071      9.50842     10.75878        -0.071609      0.519936      0.213334
O       7.78698      1.80748      2.45674         0.166287      0.434541     -0.213312
O       7.82917      1.97624     14.96416        -0.313255     -0.572437      0.152615
O       7.75362     13.57516      2.50850         0.177533      0.249959      0.456197
O       7.83388     13.60436     14.95398         0.150405      0.328676     -0.258099
O       7.76185      1.97066      6.81523        -0.279454     -0.368975     -0.403190
O       7.80661     13.76761      6.48942        -0.795380      0.032662      0.060881
O       7.90307      1.74821     10.93146        -1.094470      0.659033      0.116275
O       7.85564     13.76594     10.78654        -1.090425     -0.179280      0.344170
O       7.69127      5.97251      2.46241         0.198961     -0.522856     -0.468094
O       7.83858      5.89002     15.00869        -0.813602     -0.163102      0.098198
O       7.78849      5.91563      6.83852        -0.678707      0.127790     -0.595875
O       7.84974      5.90662     10.85981        -0.621760     -0.441609      0.352857
O       7.78209      9.86278      2.37060        -0.402727     -0.401025      0.632536
O       7.77119      9.74493     15.09185         0.023613      0.167445     -0.683265
O       7.80587      9.63293      6.74123        -0.156142      0.694612     -0.308543
O       7.88386      9.75555     10.71775        -0.686237     -0.095228      0.414476
O      11.65380      1.91676      2.62888        -1.017789      0.142610     -0.332093
O      11.80318      1.98908     15.02399        -1.089029     -0.409515      0.094760
O      11.71121     13.62012      2.56438        -0.292961      0.102221      0.018168
O      11.76698     13.51165     14.93453        -0.093759      0.280180      0.305127
O      11.62731      2.00628      6.63783        -0.166105     -0.272382      0.626604
O      11.63609     13.65879      6.80089         0.122123      0.218422     -0.105795
O      11.65470      1.76583     10.83205         1.178012      1.110966     -0.367825
O      11.77604     13.52058     10.70472        -0.748725      0.076774      0.133392
O      11.67475      5.78411      2.55234        -0.562224     -0.308211      0.137613
O      11.74145      5.68559     14.95801        -0.304545      0.482958      0.354933
O      11.62794      5.81327      6.69927         0.347798      0.158033      0.060812
O      11.68778      5.80945     10.91181        -0.341619      0.033263     -0.110875
O      11.68658      9.76655      2.71073         0.345737     -0.815046     -0.940207
O      11.74019      9.83800     15.03204        -0.345217     -0.430732     -0.148431
O      11.71865      9.69057      6.55262        -0.355765      0.093304      0.064057
O      11.71394      9.72871     10.74668        -0.116882     -0.367557      0.623265
O       1.97623      3.85045      2.41579        -0.218405      0.742740      0.388830
O       1.98926      3.89020     14.99815         0.040355     -0.307624     -0.489148
O       1.78639      0.07167      2.34681        -0.234442     -0.917300      0.625861
O       1.98977      0.00719     14.81258        -0.564800     -0.280002     -0.013124
O      13.44905      3.83123      2.74826         0.690164      0.400548     -0.780660
O      13.64061      3.83299     14.88621         0.552173     -0.236553      0.218471
O      13.62543      0.01217      2.53484         0.097407     -0.105807      0.227960
O      13.72048     15.57291     14.96210        -0.310263     -0.765297      0.077702
O       1.90950      3.83107      6.66255        -0.534697     -0.301968      0.357724
O       2.09138     15.54767      6.70558        -0.467302     -0.283987     -0.334515
O      13.60240      3.84627      6.93161         0.105349      0.957867     -0.783581
O      13.70896     15.60506      6.94843        -1.006861     -0.594709     -0.687851
O       1.92211      3.88870     10.87963        -0.177638      0.341790      0.192962
O       1.83196      0.01548     10.89345         0.486929     -1.026113     -0.271506
O      13.48424      3.91706     10.92190         1.079811     -1.026521     -0.664368
O      13.63874     15.58562     10.66903         0.428190     -0.158944      0.293187
O       1.83879      7.74044      2.55608         0.745910     -0.079741     -0.218748
O       1.82843      7.78901     14.97579         0.528126      0.451784      0.177547
O      13.59602      7.68053      2.45500         0.225107      0.394677      0.395516
O      13.71884      7.70581     15.02306        -0.407544      0.507018      0.065799
O       2.10992      7.72692      6.65422        -0.436109      0.229677      0.109953
O      13.63704      7.79153      6.60492        -0.012581     -0.218735      0.439162
O       2.18489      7.77988     10.70429        -0.227212     -0.745902      0.162231
O      13.65234      7.71200     10.95064        -0.402024      0.856236     -0.504980
O       1.86085     11.68582      2.30864        -0.036934      0.233058      0.555034
O       1.99744     11.71550     14.96996        -0.085036      0.049754     -0.094041
O      13.61429     11.66191      2.43355         0.227283     -0.590077      0.295613
O      13.80226     11.58984     15.10506        -0.543885      1.167190     -0.400561
O       1.93908     11.69674      6.71541        -0.106025      0.168304     -0.277830
O      13.52271     11.64623      6.55130         0.595424      0.237425      0.428964
O       1.92642     11.68742     10.77318        -0.011142     -0.140478     -0.058748
O      13.64912     11.54343     10.76544         0.585526      0.033767      0.685965
O       5.89436      3.81243      2.30548         0.050100      0.708194      0.441380
O       5.81565      3.87523     15.03225         0.129988      0.018661     -0.603593
O       5.83801     15.58297      2.51155        -0.009654      0.306094      0.194598
O       5.86109     15.46742     15.12251         0.296946      2.263642     -0.302568
O       5.90175      3.94559      6.73713         0.178293     -0.938337     -0.187432
O       5.75017      0.02369      6.48212         0.063702      0.086513      0.297087
O       5.95585      3.85764     11.05085         0.222449     -0.232572     -0.552497
O       5.80576     15.58556     11.00127         0.215862     -0.123164     -0.797868
O       5.77880      7.85487      2.37893        -0.397321     -0.611026      0.016788
O       5.83279      7.90191     15.04647         0.324659     -1.244995     -0.483082
O       5.74689      7.77603      6.60244         0.100534     -0.204453      0.193207
O       5.82407      7.83649     10.84373        -0.110166     -0.914839      0.215959
O       5.65038     11.75341      2.49226         0.349645     -0.590990      0.102416
O       5.85001     11.74800     14.87309        -0.226693     -1.057498      0.347291
O       5.93214     11.75864      6.68489        -0.080961     -0.111189     -0.204030
O       5.99561     11.78409     10.77694        -0.339045     -0.093567      0.087759
O       9.62569      3.91447      2.45003         0.036740     -1.523675      0.126112
O       9.68457      3.85496     14.87622         0.208035     -0.061382      0.444901
O       9.72015     15.57301      2.47372         0.019484      0.611530      0.198421
O       9.77231     15.54749     14.92932         0.276780      0.482022      0.714074
O       9.61396      3.97740      6.50976         0.209945     -0.670552      0.594290
O       9.76227      0.01031      6.67087        -0.230990      0.178736      0.222128
O       9.69282      3.84060     11.06350         0.343363      0.327283     -0.906703
O       9.82118     15.57280     10.70397        -0.101728     -0.976489     -0.034418
O       9.74461      7.71426      2.42093         0.053769      1.109443      0.209302
O       9.82096      7.83194     15.08678        -0.048631     -0.047768      0.092649
O       9.72819      7.81403      6.72085         0.360148     -0.090275     -0.111918
O       9.78062      7.75095     10.84985         0.007767      0.673840      0.214440
O       9.74829     11.63428      2.60581         0.115365      0.431456      0.115250
O       9.72265     11.71257     14.93918         0.083541     -0.285733     -0.040862
O       9.68644     11.76002      6.73485         0.060501     -0.815911     -0.827494
O       9.74404     11.68185     10.86547        -0.056416      0.141547     -0.071632
