  # total energy = -7878.76258157 
CRSYTAL
PRIMVEC
    15.6080000000000005    0.0000000000000000    0.0000000000000000
     0.0000000000000000   15.6080000000000005    0.0000000000000000
     0.0000000000000000    0.0000000000000000   16.6239999999999988
PRESSURE
-0.676718 -0.755972 -0.291806 -0.027312 -0.413011 -0.052005
PRIMCOORD
320 1
Pb       3.73970      3.83753      4.14229         0.482813      0.022595      0.065839
Pb       3.74086      3.73733     16.59010         0.174221      0.038448     -0.465038
Pb       3.93817     15.43206      4.32100        -0.213428      0.096234     -0.743237
Pb       4.00734      0.00143      0.07228        -0.166090     -0.310856     -0.325907
Pb      15.59283      3.89441      4.14406        -0.170296     -0.158856      0.778800
Pb      15.58913      3.96686     16.61413         0.006944     -0.185841     -0.181603
Pb       0.09760     15.59707      4.31227        -0.336552     -0.305406     -0.363339
Pb      15.59752     15.55752      0.03463         0.398596     -0.017814     -0.159195
Pb       4.05578      4.05673      8.30424        -0.456615     -0.567252      0.154045
Pb       3.88365      0.00449      8.47251        -0.109005     -0.238413     -0.582234
Pb       0.11953      3.95045      8.25803        -0.406831     -0.273153     -0.646422
Pb      15.59938      0.06716      8.37297        -0.182837     -0.476585     -0.552393
Pb       3.96330      3.87906     12.32623        -0.707207     -0.105343     -0.158226
Pb       3.93429      0.13784     12.34920         0.286308     -0.480780      0.408686
Pb      15.49443      3.81434     12.35235         0.814819      0.262089      0.058732
Pb      15.45825     15.54646     12.31707         0.395034     -0.224412      0.268923
Pb       3.94847      7.66203      4.23890        -0.050554      0.284884     -0.880827
Pb       3.86140      7.84624      0.05368        -0.102272     -0.153909     -0.332865
Pb      15.49580      7.72675      4.14165         0.125941      0.540474     -0.694559
Pb       0.01655      7.78347      0.01554        -0.087132      0.125470      0.325311
Pb       3.92137      7.85935      8.26885         0.152583     -0.219668      0.014354
Pb       0.20314      7.88153      8.01259        -1.198542     -0.799066      1.125009
Pb       3.76209      7.79674     12.48344        -0.166818      0.357733     -0.131939
Pb       0.04963      7.73311     12.39223        -0.191387      0.313282      0.012370
Pb       4.00650     11.58790      4.29384        -0.417653      0.466478     -0.462186
Pb       3.91490     11.63751     16.60963        -0.596289      0.455412      0.789434
Pb       0.06719     11.67268      4.25535        -0.025229      0.105294     -0.790116
Pb       0.02664     11.60112     16.58006         0.095208      0.068043      0.607509
Pb       3.89221     11.47267      8.34730         0.064038      0.639623     -0.064919
Pb      15.57845     11.72851      8.40280        -0.071265     -0.121365     -0.320800
Pb       3.78350     11.72762     12.61055        -0.210653      0.104396     -0.803562
Pb      15.36186     11.75514     12.46311         0.606432     -0.349413     -0.287156
Pb       7.87238      4.07260      4.12961        -0.433979     -0.108269     -0.039583
Pb       7.73839      3.72068      0.12665        -0.280278     -0.000480     -0.517978
Pb       7.88604      0.05329      4.17398        -0.742365     -0.396500     -0.044801
Pb       7.81143     15.41865     16.56223        -0.256350     -0.072995     -0.468847
Pb       7.87701      3.96114      8.06435        -0.212601     -0.236696      1.829765
Pb       7.70597     15.58923      8.37035         0.365316     -0.039061     -0.569535
Pb       7.79082      4.10805     12.51593         0.363971     -0.536522     -0.502526
Pb       7.79200      0.07246     12.41291        -0.053050     -0.420658      0.471427
Pb       7.75915      7.76354      4.13695         0.111329      0.203960     -0.556131
Pb       7.88563      7.64252      0.05370        -0.726574      0.106372     -0.085333
Pb       7.68496      7.77404      8.39390         0.407016      0.018424     -0.047598
Pb       7.67461      7.98058     12.59090         0.537671     -0.207278     -0.883738
Pb       7.75561     11.63843      4.15129         0.246669      0.313392     -0.174232
Pb       7.91400     11.52296      0.06006        -0.533755      0.912768     -0.162700
Pb       7.75711     11.57535      8.46362         0.439404      0.054587     -0.577625
Pb       7.70560     11.78767     12.54351         0.292418     -0.136000     -0.688429
Pb      11.55710      3.98616      3.93578         0.183376     -0.026515      1.097036
Pb      11.62152      3.66698     16.44175         0.261889      0.387296      0.048848
Pb      11.96765      0.15780      4.17887        -0.313629     -0.091861      0.033080
Pb      11.78618     15.58374      0.03931        -0.253209     -0.048104     -0.946832
Pb      11.70449      3.62272      8.07278        -0.276841      1.208418      0.699184
Pb      11.80176     15.41006      8.28904        -0.636382      0.193804      0.139489
Pb      11.53302      3.96004     12.35780        -0.085727     -0.655069      0.339093
Pb      11.81101      0.05400     12.57576        -0.643337     -0.001790     -0.186432
Pb      11.65874      8.03667      4.15517         0.093302     -0.599257      0.114770
Pb      11.71607      7.73958     16.55688         0.218487     -0.158496      0.020462
Pb      11.71399      7.74255      8.24572         0.207549     -0.167385     -0.377052
Pb      11.90856      7.52743     12.39160        -0.477212      1.218554      0.777526
Pb      11.54878     12.07376      4.09733        -0.052320     -1.052854      0.516065
Pb      11.66962     11.74689      0.05418        -0.003653     -0.168289     -0.637882
Pb      11.53393     11.48570      8.11200         0.359333      0.747003      0.874857
Pb      11.65068     11.53068     12.52652        -0.135298      0.482758     -0.400764
Ti       1.91026      1.99412      2.20910        -0.240188     -0.995205     -1.043536
Ti       1.83204      2.03413     14.51602         1.301167     -0.985189      0.476087
Ti       1.88739     13.75328      2.20556         0.065541     -0.967418     -1.118769
Ti       1.85798     13.74759     14.66760         0.199041      0.233202     -0.886619
Ti      13.67227      2.01632      2.22967         0.202463     -0.364977      0.266025
Ti      13.76463      1.85229     14.62829        -1.262268     -0.061466     -1.527359
Ti      13.61526     13.66390      2.18489         1.261226      0.543120     -0.019286
Ti      13.63318     13.47941     14.67916        -0.360982      0.940088     -0.143103
Ti       2.07558      1.83345      6.35264        -1.243634      0.815598      0.482399
Ti       1.92739     13.55958      6.46750        -0.178939      0.124732     -0.012220
Ti      13.67639      1.87020      6.39746         0.575988      0.417888     -0.287278
Ti      13.61133     13.53574      6.37618         0.630169      0.722993     -0.018915
Ti       1.87789      1.83799     10.48174         0.471847      1.507824      0.340845
Ti       1.95449     13.58465     10.49301        -0.477442     -0.633955      0.823811
Ti      13.58553      1.96577     10.44684        -0.419280     -0.244281      2.008440
Ti      13.46669     13.67461     10.40947         0.392528     -1.409676      0.128861
Ti       1.82300      5.86637      2.20745         0.747408      1.048037     -0.224289
Ti       1.90439      5.91831     14.62171        -0.105117     -1.028819     -1.275225
Ti      13.54397      5.80569      2.26879         0.307247      1.029706      0.196573
Ti      13.63293      5.66822     14.66317         0.073823      1.273111      0.365583
Ti       2.04331      5.72317      6.35990        -1.095701      0.070035      0.032214
Ti      13.63580      5.84159      6.26290        -0.362715     -0.383041      1.200232
Ti       1.89539      5.87685     10.40175         0.642257     -0.570930      1.315386
Ti      13.70932      5.77738     10.36069        -0.358805      1.145675      0.180081
Ti       1.93151      9.77691      2.27391        -0.785163      0.170734     -0.197058
Ti       1.90257      9.80152     14.68905        -0.726336     -0.531192      0.005404
Ti      13.53766      9.84114      2.24163         1.584120     -0.791735      1.058125
Ti      13.61526      9.59929     14.76858         0.372045      0.349075     -0.807722
Ti       2.03917      9.68531      6.27767        -0.832216      0.725936      1.110362
Ti      13.69635      9.71171      6.26998        -0.673600      0.173988     -0.445092
Ti       1.93343      9.78849     10.39882        -0.241158     -0.099824      1.127524
Ti      13.63284      9.76210     10.45543         0.584547     -0.065022     -0.600439
Ti       5.75982      1.96789      2.24103        -0.232477     -0.516148     -0.547825
Ti       5.82750      1.91098     14.70930        -0.226355     -0.592731      0.219145
Ti       5.77019     13.66963      2.31346         0.017629     -0.076366      0.119888
Ti       5.69526     13.59531     14.67370         1.010038      1.198866     -0.984788
Ti       5.85239      1.93828      6.26671         0.223125     -0.507483      0.313536
Ti       5.78558     13.63741      6.36232         0.556672     -0.350207      0.229261
Ti       5.97128      2.03920     10.34423        -0.626692      0.026031      1.274459
Ti       5.82379     13.66688     10.46205        -0.050953     -0.383668      3.105135
Ti       5.68030      5.82203      2.09419         0.364039      0.733303      0.130073
Ti       5.81542      5.74504     14.73700        -0.808453      0.475409      1.568441
Ti       5.86616      5.78884      6.28857        -0.016888      1.230397     -0.679353
Ti       5.75080      6.02164     10.48293         1.520534     -0.985205     -0.323957
Ti       5.80226      9.81820      2.20757        -0.110730     -0.620657     -0.118962
Ti       5.82674      9.79708     14.66161        -0.191618     -1.283510      0.095154
Ti       5.92508      9.69723      6.38904         0.345756     -0.064064      0.673046
Ti       5.80353      9.79876     10.61640         0.400774      0.328941     -0.047642
Ti       9.62938      1.92572      2.20619         0.497089     -0.264125      0.434026
Ti       9.68493      1.85107     14.59133         0.357514     -0.328058     -0.650769
Ti       9.66683     13.73258      2.23095        -0.910428     -1.051803      0.221625
Ti       9.74611     13.55319     14.66326        -0.559217      0.651153     -0.481925
Ti       9.70644      1.90462      6.35108         0.134157      0.196195      0.035144
Ti       9.65963     13.76039      6.40373        -0.296361     -1.610299     -0.171212
Ti       9.69799      1.88838     10.50584         0.996831      0.139384     -0.540421
Ti       9.66442     13.62472     10.50125         0.376505     -0.767998      0.072973
Ti       9.66170      5.82867      2.05684        -0.064622      1.420259      1.019706
Ti       9.66321      5.83726     14.68129         1.749092     -0.108715     -0.409280
Ti       9.71521      5.94713      6.36965         1.042004     -0.248148     -0.259388
Ti       9.69861      5.87841     10.45948        -0.933225      0.345026     -0.441464
Ti       9.72901      9.76826      2.06033        -0.382880     -0.216065      3.312436
Ti       9.69348      9.68511     14.57879         0.741652      0.618660      0.635491
Ti       9.73321      9.68277      6.35778        -0.538079      0.918497     -0.852418
Ti       9.90389      9.69965     10.48386        -1.803639      0.093867      0.636109
O       1.73993      1.97079      0.35663         0.574447      0.063428      0.904687
O       1.88117      1.95174     12.74110        -0.121743      0.057529     -0.987478
O       1.70835     13.93815      0.33207         0.315004     -0.403333      0.867789
O       2.01619     13.48255     12.83230        -0.335810      0.462340      0.656192
O      13.64187      2.13494      0.45198         0.028572     -0.345908     -0.578898
O      13.65737      1.78408     12.71639         0.478823      0.250900      1.314435
O      13.65795     13.78621      0.37638        -0.114640     -0.004882      0.385830
O      13.45761     13.51339     12.86010         0.472331      0.246897      0.277217
O       1.96455      2.11286      4.58782        -0.008282     -0.474021     -0.173196
O       1.97055     13.60819      4.70240        -0.033793     -0.101449     -1.048134
O      13.78643      1.77241      4.60969        -0.523742      0.138012      0.055200
O      13.64419     13.86992      4.57703        -0.692912     -0.556945     -0.022214
O       2.04920      1.81794      8.70237        -0.198319      0.019816     -0.313268
O       1.94036     13.54897      8.71968        -0.184470      0.289118     -0.807079
O      13.51618      1.93350      8.73459        -0.164422      0.045311     -1.902483
O      13.64805     13.56540      8.61474        -0.197770      0.058847      0.461316
O       1.79124      5.98507      0.41406         0.360938     -0.842308      0.255222
O       1.82916      5.89755     12.75288         0.005550      0.325089      1.137260
O      13.60403      5.62350      0.52144        -0.001001      0.194499     -0.708193
O      13.77099      5.92757     12.89706        -0.262555     -0.596715      0.040798
O       1.91589      5.69208      4.60919         0.333920      0.189812     -1.041120
O      13.47336      5.82568      4.53636         0.536512     -0.129415     -0.508271
O       2.17219      5.83266      8.64127        -0.363115     -0.056784     -0.376315
O      13.49283      5.89178      8.61614         0.258853     -0.249206      0.789252
O       1.86921      9.58093      0.48472         0.343977      0.257024     -0.146102
O       1.78998      9.78318     12.92182         0.518269     -0.237852     -0.441033
O      13.61503      9.62903      0.51584        -0.078373      0.332277     -1.255979
O      13.75331      9.80656     12.97105        -0.444494     -0.488585      0.513424
O       2.01239      9.88662      4.55846        -0.416467     -0.123459     -0.698450
O      13.57737      9.81926      4.47081        -0.042566     -0.375115      0.630331
O       2.00842      9.88481      8.60523        -0.098062     -0.584818     -0.014041
O      13.54718      9.82650      8.65160         0.352181     -0.465747      0.644722
O       5.77241      1.93663      0.37820        -0.065345     -0.122948      0.994171
O       6.06597      1.92175     12.97636        -0.792917      0.062547     -1.052934
O       5.61263     13.64322      0.56455         0.257659     -0.040828     -1.341739
O       5.68488     13.63657     12.85427        -0.095508     -0.251024      0.849673
O       5.75142      1.90054      4.49044         0.181811      0.407867      0.218191
O       5.64136     13.74617      4.58233         0.080704     -0.429078     -0.016254
O       5.88760      1.90486      8.59541        -0.190755     -0.184761      0.018053
O       5.94260     13.55492      8.76976         0.049376      0.453283     -2.374182
O       5.75317      5.84800      0.31937        -0.349990      0.133718     -0.938785
O       6.13261      5.73803     13.01571        -0.617838      0.456488     -0.896552
O       5.84754      5.81747      4.46521         0.174752      0.122801      0.694944
O       5.67673      6.06565      8.64979        -0.054140     -0.334843      0.891634
O       5.67706      9.97525      0.40506         0.064315     -0.602538      0.259354
O       5.72923      9.77260     12.83542         0.299339      0.211929      1.290249
O       6.01767      9.76671      4.63685        -0.495094     -0.265128     -1.085449
O       5.82212      9.67896      8.76118        -0.398402     -0.059544      0.260776
O       9.71721      2.02002      0.45616        -0.011289     -0.257425     -0.297813
O       9.78774      1.82587     12.76074        -0.369717     -0.121133      1.091853
O       9.57812     13.46188      0.48727         0.402635      0.431678     -0.318193
O       9.86471     13.62090     12.89204        -0.324007     -0.304467     -0.086352
O       9.60414      1.77238      4.57357         0.340550      0.338106     -0.451221
O       9.77950     13.76373      4.56245        -0.007745      0.006272      0.574290
O       9.70046      2.04587      8.67549         0.343189     -0.235289      0.934573
O       9.53961     13.45022      8.70691        -0.050024      0.660458      0.268304
O       9.78359      5.94933      0.32467         0.009517     -0.681267     -0.289528
O       9.62959      5.85373     12.89585        -0.251181     -0.147767     -0.067353
O       9.48097      5.90293      4.56684         0.233262     -0.030685     -0.536741
O       9.74385      5.78523      8.64289         0.289237      0.379914      0.624945
O       9.74033      9.82667      0.36425        -0.252060      0.063476     -1.936881
O       9.70854      9.82644     12.83730         0.010807     -0.405970     -0.070608
O       9.62312      9.54216      4.53159        -0.072347      0.396352      0.544930
O       9.82534      9.80512      8.67094        -0.206773     -0.476424      0.351494
O       3.81379      1.92442      2.45252         0.604832     -0.195383     -0.002323
O       3.81222      1.91662     14.80659         0.061844     -0.245687      0.556812
O       3.76673     13.66260      2.50165        -0.369046      0.569407      0.491161
O       3.73327     13.73876     15.00658         0.298258     -0.139269      0.141854
O      15.59381      2.08040      2.60946         0.082986      0.176047     -0.417186
O      15.57679      2.26084     14.79732        -0.911049     -0.739524      0.280800
O      15.55761     13.71114      2.66583        -0.381998     -0.140181     -0.325514
O      15.49460     13.59759     14.87436         0.353745     -0.207294      0.075456
O       3.89631      2.10229      6.58596         0.785401     -0.719813      0.198894
O       3.90739     13.72164      6.75971        -0.033661     -0.467987      0.166644
O      15.55760      1.83543      6.71936         0.645846      0.091039      0.376975
O      15.51218     13.78240      6.63198         0.670735     -0.557413      0.320281
O       3.96315      1.92018     10.76446        -0.023018     -0.263526     -0.025295
O       3.89761     13.75669     10.69503         0.039870      0.365680     -0.007265
O      15.53077      1.90638     10.61490         0.680480      0.125889      0.341371
O      15.59348     13.48307     10.76940        -0.353243      0.287640      0.011477
O       3.77217      6.19103      2.42148         0.164268     -0.868891      0.266171
O       3.87181      5.86205     14.75765         0.661829      0.128501      0.376458
O      15.57330      5.75529      2.70115        -0.085606     -0.084470     -0.712955
O      15.55289      5.79632     15.04141        -0.411494     -0.453850     -0.305227
O       3.92852      5.72553      6.43672         0.298667      0.070951      0.601812
O       0.00104      5.83543      6.70438        -0.132066     -0.060681     -0.109068
O       3.88778      5.86917     10.90124         0.228565      0.245035     -0.047291
O       0.02955      5.85220     10.67284        -0.922757     -0.331487     -0.394938
O       3.82862      9.87569      2.66247         0.512785     -0.871321     -0.394863
O       3.75490      9.52471     14.97880         1.315333      0.871984     -0.115627
O      15.48546      9.79524      2.69849         0.492033      0.439147     -0.292022
O      15.60584      9.69859     15.05612        -1.056898     -0.078725      0.366391
O       3.89023      9.65801      6.65772         0.215677      0.656248     -0.191645
O       0.01012      9.71638      6.66129         0.030520      0.052157     -0.605170
O       3.84530      9.77024     10.85394         0.063772     -0.560145     -0.177071
O      15.60584      9.86790     10.68805        -0.464147     -0.091496     -0.098057
O       7.72783      2.03831      2.58300        -0.351266      0.119487     -0.469405
O       7.76379      1.84259     14.99912         0.631976      0.106289      0.377169
O       7.68203     13.55827      2.58224         0.804240      0.173576      0.092160
O       7.70691     13.61900     14.92739        -0.013562     -0.527548      0.156753
O       7.82314      2.01176      6.65561        -1.434496     -0.731799     -0.327225
O       7.73607     13.67610      6.53278         0.367184      0.036721      0.307221
O       7.88072      1.93169     10.76166        -1.539066      0.207969     -0.101008
O       7.74169     13.60747     10.94008         0.377263     -0.414018     -0.175484
O       7.59606      5.85071      2.23613         1.596133     -0.493870      0.613343
O       7.94190      5.61978     15.20431        -2.460380      0.230589     -0.253272
O       7.83818      5.97975      6.68687        -1.926332     -0.278937      0.014929
O       7.75226      5.95208     10.65604        -0.636186     -0.254963      0.421664
O       7.68457     10.06306      2.37391         0.563114     -0.790402     -0.200962
O       7.75316      9.90397     14.94373        -0.391478     -0.129548     -0.306039
O       7.77371      9.55468      6.80690         0.046748      0.516316     -0.264734
O       7.73012      9.78274     10.90459         0.028262     -0.016078     -0.211459
O      11.68063      1.99750      2.57573        -0.882894     -0.071350     -0.273271
O      11.70914      1.71875     14.89309        -0.202156      0.454822      0.515579
O      11.61985     13.73483      2.47016         0.408111      0.370819     -0.205420
O      11.65773     13.62517     15.04597         0.717113      0.098169      0.514144
O      11.68806      1.88814      6.51557        -0.653193      0.340475      0.259105
O      11.61869     13.45166      6.78220         0.047493      1.244757     -0.745054
O      11.66548      1.88696     10.89417        -0.002623      0.380232     -0.627862
O      11.62018     13.66362     10.67926         0.514598      0.188985     -0.179123
O      11.59846      5.88239      2.50659        -0.714513     -0.163482     -0.203735
O      11.62029      5.88736     14.95913         0.781966     -0.269812     -0.144059
O      11.62662      6.00394      6.51413         0.073235     -0.740788      0.320302
O      11.64178      5.85891     10.96066         0.707638     -0.503188     -1.253139
O      11.62706      9.68257      2.45420        -0.297671      0.050012     -0.037876
O      11.62969      9.67315     14.99891         0.674311     -0.014082     -0.054018
O      11.71867      9.65971      6.51655        -0.337176      0.099839      0.224178
O      11.71306      9.57710     10.83421         0.775748      0.162719      0.078376
O       2.13994      3.92324      2.45644        -0.864857      0.563478     -0.279819
O       1.91313      3.90044     14.83009         0.411953      0.816986      0.630001
O       1.83161      0.05618      2.52639         0.038665      0.068119      0.284530
O       1.62053      0.06074     14.67395         0.120438     -0.634035      0.600459
O      13.56178      3.91977      2.74241         0.125547     -0.471949     -0.350806
O      13.53252      3.81742     14.90262        -0.302662      0.379666     -0.142748
O      13.64792      0.11574      2.42974        -0.236152     -0.582061      0.051689
O      13.71387      0.01405     14.84235         0.091406     -0.405352      0.475155
O       1.89318      3.85795      6.71863         0.044939     -0.300926      0.283603
O       1.96676     15.53859      6.53390         0.288355      1.221900      0.680888
O      13.66052      3.87038      6.69611        -0.142995     -0.153693     -0.269700
O      13.49606     15.57438      6.75315         0.194976     -0.033232     -0.054300
O       1.93080      3.91711     10.78188         0.077750     -0.370581     -0.319143
O       1.81538     15.56055     10.67087         0.404086      0.145722      0.508664
O      13.65438      3.89076     10.80016        -0.292726      0.360060     -0.344706
O      13.66630     15.55281     10.60723        -0.093932     -0.089371      0.404814
O       1.75994      7.85157      2.55961         0.041856     -0.611847      0.529775
O       1.81650      7.70492     15.00545         0.200699      0.806174     -0.291860
O      13.72510      7.73538      2.56910        -0.620274      0.080347     -0.042007
O      13.67871      7.70633     15.13808        -0.508190      0.386288     -0.530503
O       1.97292      7.71755      6.56436         0.376167      0.807346     -0.068747
O      13.62403      7.74600      6.50402         0.447075      0.914289      0.378226
O       1.90779      7.82745     10.65666         0.148591     -0.094529      0.315834
O      13.72993      7.72659     10.87742        -0.319107      0.283006     -0.592693
O       1.87497     11.74071      2.24791        -0.463558      0.243151      0.791989
O       1.84560     11.66025     15.06251         0.485300      0.493246     -0.145085
O      13.53362     11.79685      2.31500        -0.180838     -0.135596      0.486392
O      13.65636     11.64562     15.14253        -0.531129     -0.240229     -0.320958
O       1.86132     11.66427      6.66152         0.319442      0.001888      0.043623
O      13.68281     11.65641      6.48038         0.141653      0.179412      0.247521
O       2.09637     11.64070     10.75300        -0.187415      0.934580     -0.056315
O      13.49196     11.66256     10.85468         0.245496     -0.303871     -0.260191
O       5.56062      3.96704      2.30586         0.262359     -1.009755      0.499808
O       5.73204      3.79219     15.03575         0.463693      1.288575      0.033094
O       5.79057     15.59970      2.52886        -0.062500      0.924737      0.027362
O       5.79959     15.48057     15.04143        -0.303610      0.952049      0.225821
O       5.87041      3.91573      6.67442         0.287693     -0.058518     -0.348974
O       5.88766     15.58543      6.58141        -0.384509      0.849067      0.463207
O       5.79559      3.95732     10.61280         0.174807     -0.393227      0.434175
O       6.02438      0.04826     10.87333        -0.913710      0.026374     -0.978072
O       5.86283      7.84764      2.46453        -0.279351      1.022827      0.066364
O       5.95739      7.88143     14.99244        -0.106588     -0.642652     -0.192901
O       5.71203      7.74248      6.62439         0.213170     -0.223267     -0.146496
O       5.83271      7.85162     11.01966        -0.506481     -0.859055     -0.430031
O       5.66475     11.76902      2.67593         0.327740     -0.776242      0.032168
O       5.60238     11.73271     15.01891         0.185772     -0.909454     -0.553005
O       5.93041     11.58731      6.60609        -0.598958      1.182583      0.370277
O       5.81257     11.69085     10.82975        -0.221149      0.603069     -0.119118
O       9.55506      3.94978      2.47215         0.573870     -0.358386     -0.032498
O       9.78652      3.70497     14.85119         0.051229      0.807907      0.130416
O       9.46704     15.59960      2.36472         0.569831      0.614601     -0.011146
O       9.70806     15.47280     15.06939         0.004994      0.782746      0.149014
O       9.54268      3.89012      6.61776         1.652058      0.198504     -1.032701
O       9.65787      0.00431      6.84809         0.295669     -0.384628     -0.428871
O       9.59772      3.98785     10.95170         0.984887     -0.712264     -0.542336
O       9.64186     15.50222     10.78142         0.112074      1.059053     -0.514796
O       9.48647      7.80824      2.25826         0.170556      0.232483      0.505903
O       9.58632      7.80390     14.90706        -0.063715     -0.195088      0.204491
O       9.70846      7.85884      6.68182         0.267938     -1.259520      0.399740
O       9.65919      7.82167     10.78597         0.313178     -0.408523     -0.099809
O       9.73814     11.67189      2.61330         0.309708      0.434675     -0.193788
O       9.78086     11.67147     15.00377        -0.041820     -0.311056      0.000505
O       9.66926     11.64751      6.68757        -0.351030     -0.193890     -0.705321
O       9.82113     11.60591     10.85050        -0.203994      0.605216     -0.009030
