  # total energy = -7883.03500160 
CRSYTAL
PRIMVEC
    15.6080000000000005    0.0000000000000000    0.0000000000000000
     0.0000000000000000   15.6080000000000005    0.0000000000000000
     0.0000000000000000    0.0000000000000000   16.6239999999999988
PRESSURE
-1.35047 -1.58629 -1.73871 -0.261887 0.307632 -0.09305
PRIMCOORD
320 1
Pb       3.99487      3.85014      4.11344        -0.347750      0.454611     -0.214678
Pb       4.07712      4.01763      0.12609        -0.476462     -0.118599     -0.395897
Pb       3.91071      0.02004      3.97319        -0.248464     -0.521709      0.182859
Pb       3.80113     15.57094     16.58106         0.364967     -0.053701     -0.254710
Pb       0.06267      3.83806      4.15485         0.051653      0.398412     -0.134902
Pb      15.55351      3.78328     16.60108         0.147562      0.102343      0.077457
Pb      15.55632     15.49110      3.99539         0.332891      0.077464      0.550353
Pb      15.56555     15.57636     16.57742        -0.522993      0.152984     -0.584885
Pb       3.68762      3.73767      8.29375         0.409262      0.393729      0.174816
Pb       3.85129      0.02756      8.17912        -0.015726     -0.130579      0.551617
Pb      15.46704      3.81032      8.28610         0.352162     -0.150795      0.106094
Pb       0.00663     15.56212      8.21668         0.170152      0.180023      0.125821
Pb       3.78712      3.89102     12.49149         0.318839     -0.088192     -0.553571
Pb       3.83932     15.46935     12.47477         0.072301      0.821715     -0.542618
Pb       0.07158      3.95899     12.52328        -0.459303     -0.148865     -0.443521
Pb       0.04343      0.23075     12.69768        -0.045244     -0.576968     -0.791102
Pb       3.80682      7.89903      4.14356         0.273218     -0.575653     -0.055556
Pb       3.85844      7.75525     16.54333         0.192105     -0.153690     -0.320451
Pb       0.07120      7.88208      4.22080        -0.428602     -0.178425     -0.327051
Pb      15.60208      7.75545     16.56054         0.066994      0.049320     -0.028707
Pb       3.87758      7.69258      8.28026         0.027811     -0.079622     -0.080968
Pb      15.29447      7.71271      8.61371         0.546335      0.265717     -0.401780
Pb       3.93945      7.82594     12.40324        -0.296630     -0.635466     -0.356995
Pb      15.51870      7.91345     12.57926         0.510828     -0.103446     -0.705772
Pb       3.81643     11.70809      4.01914         0.136245      0.285940      0.480811
Pb       3.84234     11.71351     16.54220         0.023505     -0.024685     -0.129119
Pb      15.53878     11.66234      4.02336        -0.164747     -0.174359      0.099358
Pb      15.54910     11.78883     16.56650         0.033525     -0.241546     -0.126787
Pb       3.82392     11.75179      8.16875         0.469896     -0.522198      0.298760
Pb      15.60527     11.63546      8.25531        -0.081528      0.092109      0.199486
Pb       3.95735     11.62823     12.32666        -0.145644      0.203281     -0.190277
Pb       0.16695     11.64424     12.41451        -0.257771      0.274779     -0.687313
Pb       7.78732      3.67132      4.17951         0.241086      0.746235      0.260618
Pb       7.79583      4.01009     16.61208         0.247607     -0.214224      0.245020
Pb       7.70537     15.48560      4.08134         0.390810      0.122511      0.113951
Pb       7.83630      0.16894      0.05972         0.106169     -0.080153     -0.172559
Pb       7.64184      3.88580      8.39776         0.356124      0.136961     -0.688659
Pb       7.88330     15.60597      8.26191         0.001482     -0.295079     -0.561882
Pb       7.75622      3.70520     12.42134        -0.185519      0.563763     -0.174244
Pb       7.66774     15.54429     12.50111        -0.016928     -0.033992     -0.587952
Pb       7.77948      7.84044      4.18397         0.135547     -0.030641     -0.160062
Pb       7.65540      7.86225     16.58809         0.298970     -0.347545     -0.307025
Pb       7.83701      7.72207      8.20447        -0.532192     -0.122399      0.167923
Pb       7.74847      7.66696     12.44300         0.077153      0.020064     -0.741858
Pb       7.91844     11.74661      4.24934        -0.297442     -0.446049     -0.301570
Pb       7.63122     11.77476     16.57473         0.429159     -0.178289     -0.387898
Pb       7.73956     11.75272      8.21088        -0.131632      0.168607      0.008355
Pb       7.74616     11.56131     12.39314        -0.302897      0.257103      0.007737
Pb      11.87801      3.80535      4.35844        -0.332264      0.442134     -0.690807
Pb      11.77261      4.06779      0.20236        -0.478104     -0.275522     -0.155223
Pb      11.58251     15.43523      4.15038         0.045384      0.234643     -0.331283
Pb      11.58230     15.51296     16.61664         0.544692      0.402627     -0.173050
Pb      11.73701      4.12740      8.48407         0.143002     -0.520987     -0.796414
Pb      11.67469      0.17277      8.33777        -0.183393     -0.168486     -0.491403
Pb      11.79634      3.82769     12.58969         0.116149     -0.019876     -0.834796
Pb      11.63860      0.02327     12.42952         0.194561     -0.077715     -0.154112
Pb      11.77708      7.72111      4.19246        -0.035399     -0.219804     -0.375606
Pb      11.54147      7.82076      0.01563        -0.067377     -0.642687     -0.288905
Pb      11.62623      7.84843      8.34127         0.395946     -0.293802     -0.239220
Pb      11.45598      8.01278     12.65144         0.224411     -0.303901     -0.590076
Pb      11.82204     11.33459      4.22605        -0.038668      0.691391     -0.115475
Pb      11.67928     11.71001     16.52129        -0.208884      0.320820     -0.001354
Pb      11.91640     11.94758      8.53757        -0.211877     -0.486928     -0.422413
Pb      11.56378     11.86010     12.39749         0.233260     -0.414663      0.067689
Ti       1.94307      1.97674      2.11207         0.034823      0.266881      0.270409
Ti       1.97112      1.98327     14.73200        -0.062039     -0.027321     -0.349937
Ti       1.90697     13.64092      2.10350         0.282528     -0.018620      0.303700
Ti       1.94170     13.60929     14.64328         0.135784     -0.030111      0.798696
Ti      13.67252      1.86983      2.18249        -1.261255      0.423178     -0.408602
Ti      13.52067      1.94654     14.66872         0.719756     -1.133934      0.407789
Ti      13.60106     13.65866      2.18279        -0.517818     -1.241136     -0.287649
Ti      13.63277     13.59896     14.56067        -0.611912      1.311755      0.782188
Ti       1.99512      1.87118      6.18680        -1.239369      0.562377      0.204878
Ti       1.94737     13.59663      6.35827        -0.709715      0.132943     -1.335206
Ti      13.64518      1.89916      6.31351         0.130278     -0.198156      0.527486
Ti      13.64466     13.63211      6.32704         0.055008     -0.484939      0.176153
Ti       1.96329      1.92655     10.55124         0.423298     -0.868006     -0.689133
Ti       1.95881     13.72002     10.54609        -1.136152     -0.283585      0.198586
Ti      13.70889      1.84836     10.58622         0.081582      0.987248     -0.352610
Ti      13.78056     13.67217     10.57299         0.596070     -0.395581      0.914972
Ti       1.90803      5.86609      2.24921        -0.010103     -0.344750      0.139194
Ti       2.01067      5.75201     14.70312         0.668995      0.245212     -0.935065
Ti      13.61818      5.78211      2.19828         0.215511      0.445926      0.519414
Ti      13.71446      5.81596     14.68998        -0.550312      0.134246     -0.376197
Ti       2.02166      5.79676      6.36650        -0.358736     -0.005694     -1.292652
Ti      13.82748      5.78458      6.36672        -1.080192      0.512014     -0.183623
Ti       1.85682      5.78525     10.45050         1.527576      0.559868      1.204379
Ti      13.59717      5.82144     10.64265         1.299814     -0.550152     -0.904242
Ti       1.95049      9.75168      2.12321        -0.823183     -0.325466     -0.539907
Ti       1.94597      9.71038     14.69944        -0.142281      0.075732     -0.265807
Ti      13.61149      9.65643      2.02763         0.585113      0.074179      0.470632
Ti      13.64846      9.76852     14.60743        -0.044753     -1.057616      0.200598
Ti       1.95353      9.67171      6.30512        -0.418311      0.194697      0.709772
Ti      13.66080      9.70044      6.47772         0.232359      0.111955      1.359597
Ti       1.98208      9.67512     10.47968        -0.694246     -0.232893     -0.612534
Ti      13.64776      9.75840     10.55232         0.369172      0.618436     -0.461264
Ti       5.86606      1.91216      2.18353        -0.240276      0.382400     -0.885775
Ti       5.78900      1.93560     14.76053        -0.016056     -0.180748     -1.011231
Ti       5.79959     13.59277      2.07351        -0.062697      0.473648      0.500377
Ti       5.80306     13.66458     14.55395         0.331852     -0.065116      0.898248
Ti       5.83272      1.90786      6.32745         1.039273      0.127692      0.192845
Ti       5.81072     13.66940      6.21641         0.851375     -0.515825      0.493889
Ti       5.87149      1.91373     10.47531        -1.264986     -0.058880      0.360454
Ti       5.85220     13.67551     10.43371         0.185887     -0.369570     -0.183932
Ti       5.83309      5.88552      2.21289         0.064401     -0.331961      0.247935
Ti       5.90836      5.81072     14.54136        -0.753341      0.613566      0.349476
Ti       5.88391      5.73801      6.34615        -0.132832      0.558788      0.617293
Ti       5.82115      5.77287     10.40892        -0.090553      0.374448     -0.281803
Ti       5.83059      9.77765      2.15608         0.731050     -0.327143      0.359390
Ti       5.80806      9.80909     14.60486         0.516319     -0.621542      0.753687
Ti       5.83371      9.70836      6.32403         0.124953      0.432829      0.682542
Ti       5.80799      9.70391     10.33238         0.737429     -0.032355      0.161016
Ti       9.75568      1.90222      2.30083         0.584046     -0.127279     -1.840900
Ti       9.68957      1.90489     14.56339         0.813443      0.189473      1.216455
Ti       9.71022     13.53965      2.11481         0.525328      0.218338      0.003203
Ti       9.69747     13.62793     14.63274        -0.047701     -0.214333     -0.082597
Ti       9.73251      1.94498      6.37620         0.026827      0.176000      1.397168
Ti       9.80978     13.54502      6.30100        -0.292927      0.683606      2.291598
Ti       9.80309      2.00687     10.44423         0.127130     -0.793288     -0.342380
Ti       9.75252     13.66062     10.49136        -0.513215      0.397905      0.093132
Ti       9.66723      5.77970      2.32970         0.930113      0.256788     -0.606012
Ti       9.77980      5.74933     14.61383        -0.211225      0.876339     -0.364090
Ti       9.80438      5.80144      6.34537        -0.123148     -1.229362     -0.612106
Ti       9.82124      5.83941     10.52705        -1.287370      0.174041      0.355460
Ti       9.76080      9.72653      2.15709        -0.597647     -0.183602      0.229193
Ti       9.72099      9.70631     14.70794        -0.894092      0.471312     -0.739208
Ti       9.75782      9.72256      6.40704         0.304339     -0.000049      0.262922
Ti       9.70211      9.78787     10.45467        -0.136827     -0.239097      1.117707
O       1.94048      2.02410      0.33838        -0.072848     -0.520389      0.264627
O       2.03169      1.91232     12.89837        -0.260009      0.441214      0.697703
O       1.97240     13.56663      0.32385        -0.333250      0.279523     -0.080756
O       2.09704     13.48162     12.90800        -0.316015      0.252439     -0.330140
O      13.61633      1.81763      0.36460        -0.094182      0.204694      0.552456
O      13.60283      1.95235     12.86767         0.164489      0.087127     -0.227946
O      13.64999     13.68828      0.41391         0.388014     -0.448874     -0.453928
O      13.47001     13.55244     12.83239        -0.027371      0.022088     -0.470773
O       1.98914      2.04025      4.38393        -0.258236     -0.508947      0.535167
O       1.99273     13.60727      4.53593        -0.328412     -0.033875      0.902352
O      13.73494      1.93118      4.54818        -0.413242      0.083051     -0.656514
O      13.65337     13.50067      4.53404        -0.048711      0.300862     -0.023971
O       2.04178      1.73435      8.70643         0.061479      0.411025      0.461844
O       1.79987     13.75451      8.77605         0.324375     -0.097473     -0.668018
O      13.77035      1.89654      8.78025        -0.158242     -0.248665      0.042864
O      13.80213     13.61761      8.79733        -0.140806      0.245683     -0.588930
O       2.05871      5.84471      0.45472         0.045371      0.475420     -0.186201
O       2.07781      5.65456     12.86009        -0.472997     -0.003297      0.719344
O      13.60550      5.72043      0.37361        -0.117759      0.108736     -0.067062
O      13.77916      5.70815     12.86190        -0.014992      0.363285      0.306643
O       1.87981      5.81998      4.48840         0.213817     -0.282119      0.856276
O      13.72002      5.77064      4.54829         0.090965     -0.094138      0.473691
O       1.92299      5.84793      8.69983         0.259131      0.002377     -1.022861
O      13.68886      5.74431      8.71917         0.267110     -0.124355      0.618055
O       1.98001      9.59864      0.32190        -0.210177      0.167261      0.592505
O       1.88631      9.74659     12.90776         0.173325      0.077483      0.015609
O      13.47967      9.61767      0.26037         0.313275      0.250153     -0.197473
O      13.68843      9.55171     12.77866        -0.069488      0.333558      0.492450
O       1.87888      9.76122      4.50929         0.227364     -0.050074     -0.108672
O      13.61190      9.65530      4.73175        -0.179008      0.142681     -1.583831
O       2.14126      9.48867      8.69857        -0.421069      0.693468     -0.144844
O      13.79282      9.75740      8.72688        -0.232824     -0.318201      0.291442
O       5.86160      1.88304      0.33925         0.260781     -0.124006      0.698051
O       5.98080      1.94097     12.91069         0.019732     -0.038137      0.801761
O       5.83546     13.65425      0.26547         0.095011     -0.152207      1.296895
O       5.72562     13.67680     12.77761         0.232984     -0.180270     -0.260505
O       5.89662      1.99986      4.50779        -0.303949     -0.228750     -0.145008
O       5.74456     13.66272      4.40696         0.258578     -0.177809      0.805075
O       5.74754      2.01358      8.68681         0.169593     -0.408336      0.204455
O       5.94354     13.53739      8.66930        -0.215125      0.539232     -0.154807
O       5.81203      5.75547      0.40802         0.077603      0.565547     -0.039179
O       5.90002      5.92282     12.75433         0.133430     -0.442248      0.420560
O       5.89794      5.79455      4.56274         0.135290     -0.108783     -0.348506
O       5.90340      5.83256      8.55944        -0.177066     -0.324668      1.393298
O       5.98914      9.68961      0.36574        -0.714869      0.131955      0.601998
O       5.87033      9.84995     12.85588        -0.266466     -0.317284     -0.611309
O       5.88214      9.71564      4.55972         0.001385      0.029781     -1.310176
O       5.83443      9.81095      8.55504        -0.185151     -0.065653      0.747524
O       9.70979      1.87397      0.41234         0.258808      0.038462      1.464389
O       9.68352      1.88267     12.78968         0.084304     -0.167665     -0.270315
O       9.61055     13.40786      0.33522         0.328631      0.564150     -0.195807
O       9.88251     13.75294     12.83243        -0.050535     -0.160376      0.249336
O       9.52893      1.67406      4.66284         0.416693      0.538133     -2.162675
O       9.86904     13.54183      4.58249        -0.231254      0.337065     -1.659756
O       9.73651      1.89971      8.63409         0.145678      0.352768      0.753147
O       9.73051     13.44330      8.74114        -0.174910      0.122046     -0.627669
O       9.95027      5.72327      0.44953        -0.297574     -0.337532      0.369758
O       9.64011      5.93804     12.78488         0.560940      0.065227      1.079989
O       9.62517      5.74220      4.50710         0.512148      0.604373      0.750076
O       9.90123      5.69856      8.74785        -0.139522      0.366079     -0.199308
O       9.74403      9.79974      0.35602         0.340661     -0.224928      0.328110
O       9.76918      9.65154     12.84719        -0.174285     -0.200699      0.431633
O       9.83290      9.52814      4.63593         0.114129      0.362998     -0.650966
O       9.68114      9.88856      8.73177         0.250404     -0.358116     -0.792768
O       3.91101      1.85052      2.39567        -0.421058      0.117665      0.048242
O       3.88087      1.89215     15.04673         1.080159     -0.433201     -0.147228
O       3.81122     13.76848      2.47201         0.613120     -0.120602     -0.466229
O       3.91265     13.60250     14.95562        -0.775079      0.080955      0.119901
O      15.49414      2.03199      2.36979         1.427649     -0.133355      0.321129
O       0.04701      1.88237     14.94697        -0.045953      0.326681      0.155373
O      15.60568     13.52041      2.48877         0.240175      0.105355     -0.053618
O      15.51657     13.68963     14.92437         1.033905     -0.807998      0.004104
O       3.89777      1.85962      6.47780        -0.071761      0.037261      0.361040
O       3.92773     13.58073      6.62946        -0.516307      0.148866      0.081370
O       0.00871      1.89660      6.54355         0.579596     -0.228839      0.136788
O      15.57558     13.61103      6.71317         0.518249      0.400429     -0.612944
O       3.89900      1.84605     10.90314         0.887326      0.277519     -0.218710
O       3.81624     13.74310     10.67972         1.231837     -0.374524      0.333114
O       0.07111      1.86452     10.89115        -0.725425      0.364356      0.187983
O       0.01306     13.69918     11.10113         0.237455     -0.203809     -0.376783
O       3.92722      5.90655      2.53050        -0.278730      0.127967      0.065322
O       3.97733      5.85452     14.90641        -0.190745      0.166266      0.439862
O      15.55335      5.72563      2.43564         0.343889      0.075635      0.028742
O       0.15324      5.66994     15.03983        -1.158376      0.373235     -0.141841
O       3.94413      5.70174      6.63693        -0.386816      0.223068     -0.028290
O       0.07846      5.70935      6.65651        -0.093985      0.151123     -0.035433
O       3.94192      5.71734     10.72815        -0.061917      0.165462      0.110756
O       0.08135      5.57464     10.79859        -0.853016      0.830966      0.141971
O       3.85292      9.67024      2.39774         0.632388     -0.351920      0.278784
O       3.90109      9.77088     14.93462        -0.282422     -0.296548      0.066952
O      15.53322      9.75149      2.41800         0.816568     -0.002800     -0.056250
O      15.55104      9.76921     14.99291        -0.049268     -0.263107     -0.077016
O       3.92371      9.88674      6.50733        -0.657831     -0.200843      0.140388
O      15.60191      9.70140      6.59843         1.501010     -0.030925      0.229049
O       3.89231      9.67570     10.85857         0.742667      0.485690     -0.052387
O       0.08046      9.64178     10.75480        -0.391479      0.136824      0.549173
O       7.76083      1.90447      2.52388        -0.193968     -0.257191     -0.176924
O       7.87692      1.93126     15.14309        -0.734172      0.064183     -0.942803
O       7.79691     13.49163      2.50337        -0.766575     -0.082743     -0.107662
O       7.74850     13.49875     14.80226         0.731728      0.404254     -0.039466
O       7.75475      1.93683      6.65121        -0.267397     -0.022277      0.396144
O       7.80526     13.76350      6.58895         0.347033     -0.619163     -0.320692
O       7.84596      1.97257     10.76546         0.045998     -0.225009     -0.124268
O       7.81483     13.77403     10.80751        -0.260266     -0.313532      0.199813
O       7.84562      5.74295      2.39458        -0.924489     -0.210841      0.074678
O       7.75973      5.77422     15.04860         0.730787      0.098354     -0.387648
O       7.83829      5.74960      6.74375        -0.194561      0.636461     -0.219470
O       7.81426      5.83346     10.71651         0.469663     -0.091307     -0.001118
O       7.77107      9.86548      2.46127         0.180929     -0.070954      0.334083
O       7.81399      9.79418     14.89723        -0.371242      0.075475      0.261362
O       7.88064      9.58671      6.56040        -0.538543      0.100407      0.297922
O       7.73140      9.72612     10.72296         0.082343      0.031423      0.235952
O      11.63425      1.67867      2.63610         0.288891      0.432018     -0.095766
O      11.68710      1.86808     14.84239        -0.695171      0.448314      0.063457
O      11.69764     13.75398      2.28569        -0.282923     -0.357796      0.490960
O      11.73285     13.66391     15.05719        -0.562742     -0.386082     -0.117837
O      11.66551      2.04024      6.61277         0.777752     -0.564240     -0.047090
O      11.72690     13.51350      6.74910        -0.140352      0.389048     -0.188530
O      11.77887      1.94846     10.73193        -0.578784     -0.513306      0.405887
O      11.72834     13.50124     10.60686         0.008882     -0.088827      0.752455
O      11.74359      5.81527      2.66132        -0.363752      0.099636     -0.251771
O      11.72453      5.91280     14.90627         0.055036     -0.363708     -0.219154
O      11.78102      5.78979      6.65453        -0.229434     -0.015101     -0.197059
O      11.82061      5.87885     10.76441        -1.323219     -0.059851      0.475944
O      11.73377      9.67159      2.58802        -0.607621     -0.365168     -0.453884
O      11.64041      9.52966     14.85376         1.015317      0.169307      0.067437
O      11.75677      9.71101      6.80672        -0.705283     -0.180376     -0.199671
O      11.72754      9.84367     10.71457        -0.276549     -0.320677      0.265965
O       1.97310      3.91834      2.45036         0.131660     -0.583768      0.048155
O       2.17959      3.86264     15.03926        -0.694578      0.108757     -0.319595
O       1.79403     15.59890      2.38335         0.127831      0.381586     -0.005942
O       1.93636     15.54403     15.00944         0.158463     -0.136658     -0.192677
O      13.41245      3.80955      2.42265         0.322857     -0.235387      0.047629
O      13.74599      3.84162     14.97317        -0.488739      0.312784      0.084631
O      13.76667     15.49928      2.49606        -0.053643      0.906080      0.238776
O      13.65506     15.59013     14.89553         0.084844     -0.207607      0.017327
O       2.01788      3.81826      6.63276        -0.193433     -0.575874     -0.156542
O       1.96547     15.55350      6.66026         0.079277      0.034036     -0.595667
O      13.74407      3.80653      6.66341        -0.223816      0.721117     -0.155351
O      13.55094     15.57181      6.56967         0.204654     -0.162665      0.259259
O       2.03273      3.79754     10.66145         0.073173      0.492373      0.483406
O       1.91100     15.59679     10.98854         0.156400     -0.320095      0.042043
O      13.66822      3.85482     10.86562        -0.018677     -0.178164      0.165175
O      13.71270     15.53693     10.98831        -0.452615      0.770152     -0.356778
O       1.84034      7.84822      2.58567         0.291184     -0.505336     -0.246927
O       1.92730      7.79008     14.87539         0.055229     -0.630725      0.464034
O      13.64831      7.76105      2.42945         0.045628     -0.256694      0.182516
O      13.81217      7.68932     14.92610         0.076512      0.129007     -0.120504
O       2.14235      7.69422      6.43290        -0.159772      1.052850      0.242515
O      13.79022      7.73983      6.76755        -0.506125     -0.460977     -0.135698
O       1.96963      7.75683     10.88181         0.142728     -0.768884      0.092513
O      13.81781      7.75664     10.62939         0.056295     -0.198802      0.617462
O       2.08728     11.70814      2.37347        -0.646718     -0.639370      0.035581
O       1.88893     11.63893     15.10034        -0.005620      0.680779     -0.382517
O      13.66266     11.57012      2.44177        -0.504995      0.608642      0.150970
O      13.58450     11.60589     14.89933        -0.054007      0.489842      0.064725
O       1.91129     11.65763      6.68856         0.175861      0.334157     -0.016346
O      13.72791     11.69449      6.74765        -0.222420     -0.066907     -0.129335
O       1.91312     11.67335     10.75654         0.317772     -0.142361      0.193480
O      13.88485     11.67418     10.74940        -0.569744     -0.443588      0.345906
O       5.75353      3.88981      2.34837         0.200555     -0.869575      0.625319
O       5.82399      3.86946     14.94070         0.195953     -0.138440      0.063628
O       5.82378     15.54042      2.49918         0.402720      0.386948     -0.389097
O       5.86547     15.55214     14.87550         0.114642      0.471137      0.189010
O       5.86196      3.85521      6.65488        -0.017180     -0.368261     -0.233768
O       5.89757     15.58245      6.59263        -0.519492      0.162050     -0.053684
O       5.96359      3.86900     10.78703        -0.272773     -0.397242     -0.105722
O       5.82589     15.56968     10.76450         0.346508      0.878149      0.178459
O       6.00418      7.74073      2.55437        -0.461024      1.047970     -0.481643
O       5.89598      7.77814     14.87241         0.027500      0.211842      0.284336
O       5.76773      7.85558      6.71095         0.329282     -1.080763     -0.485121
O       5.77543      7.76331     10.67227         0.137909      0.494253      0.096470
O       5.57716     11.72331      2.39652         0.677354     -0.532215     -0.319605
O       5.77942     11.68924     14.96622         0.091665      0.016961     -0.041415
O       5.99197     11.72367      6.56569        -0.138835      0.230957     -0.216423
O       5.82617     11.74844     10.69304        -0.136129     -0.882865      0.483224
O       9.77448      3.78473      2.54531         0.138311     -0.217682      0.198462
O       9.75752      3.90852     14.69530         0.016482     -0.484221      0.554753
O       9.67662     15.46812      2.43223        -0.458649     -0.065998      0.300565
O       9.80788     15.57423     14.95674        -0.677126     -0.194707      0.011051
O       9.74636      3.88953      6.59834        -0.042135     -0.145371     -0.055347
O       9.79079     15.58618      6.71050         0.357104     -0.658324      0.338800
O      10.00800      3.89652     10.80611        -0.715827     -0.269271      0.173040
O       9.87633     15.59774     10.62283         0.046539      0.091068      0.364685
O       9.67607      7.74914      2.45044         0.218167      0.540547      0.036660
O       9.62704      7.75999     15.09182         0.335137     -0.031394     -0.443583
O       9.80884      7.67138      6.81359         0.048141      0.743352     -0.182479
O       9.76001      7.76631     10.76557         0.322478      0.785413     -0.181359
O       9.85186     11.62162      2.49836        -0.024980      0.050531      0.488129
O       9.84184     11.70193     14.81914         0.221369     -0.382181      0.150857
O       9.67518     11.62271      6.45211        -0.136937      0.309314      0.250147
O       9.59469     11.69449     11.01540         0.769286     -0.191191     -0.765117
