  # total energy = -7881.61372936 
CRSYTAL
PRIMVEC
    15.6080000000000005    0.0000000000000000    0.0000000000000000
     0.0000000000000000   15.6080000000000005    0.0000000000000000
     0.0000000000000000    0.0000000000000000   16.6239999999999988
PRESSURE
-0.312912 -0.502139 -0.207969 -0.043286 -0.051592 -0.06659
PRIMCOORD
320 1
Pb       3.78311      3.82189      4.08874         0.390081     -0.147684     -0.243406
Pb       3.75175      3.75336      0.01278         0.486478      0.510502      0.200236
Pb       3.92089     15.44970      4.28683         0.052288      0.695398     -0.353540
Pb       3.96510     15.56792      0.09662        -0.124483     -0.276579     -0.513578
Pb      15.53471      3.84637      4.15147        -0.004623      0.003467     -0.316127
Pb      15.55861      3.95502     16.57685         0.006840     -0.296746      0.037672
Pb       0.12206     15.60794      4.25006        -0.318145      0.078371     -0.010297
Pb       0.01428     15.54028      0.01998         0.388727      0.090761     -0.212957
Pb       4.00550      4.03848      8.33412         0.595737     -0.253390      0.040646
Pb       3.88605      0.10424      8.50526         0.254474      0.015517     -0.552655
Pb       0.09685      3.93057      8.21746        -0.311177      0.088807      0.643930
Pb       0.05081      0.09300      8.31341         0.330444     -0.568456      0.008302
Pb       3.93458      3.96472     12.31118        -0.233444     -0.469456      1.042439
Pb       3.90005      0.05338     12.31240        -0.215745     -0.673328      0.688421
Pb      15.51039      3.73190     12.24407        -0.126180      1.163316      0.709814
Pb      15.42663     15.59596     12.35350         0.766966     -0.282762      0.381425
Pb       3.89903      7.69333      4.25180        -0.564447      0.138045     -0.731285
Pb       3.82431      7.82729      0.00006        -0.224722     -0.410177      0.528427
Pb      15.54463      7.77928      4.08633         0.226777     -0.025334      0.051577
Pb       0.02534      7.79469      0.02637        -0.171427     -0.072875     -0.446207
Pb       4.01394      7.85352      8.24309        -0.342525     -0.220844     -0.191773
Pb       0.15134      7.85895      8.06415        -0.210636      0.177110      0.540007
Pb       3.74870      7.84750     12.51062         0.244738     -0.265844      0.255102
Pb       0.02539      7.75266     12.39550        -0.496704     -0.059239      0.535435
Pb       3.99374     11.62947      4.27397        -0.229975     -0.007732     -0.663990
Pb       3.90816     11.64487     16.56208        -0.073197      0.242840     -0.339750
Pb       0.07007     11.75228      4.22301        -0.361605      0.107548      0.000895
Pb       0.04772     11.68852      0.03624         0.184531      0.011416     -0.427814
Pb       3.89311     11.49293      8.26510        -0.292862      0.498293      0.595005
Pb      15.48989     11.72317      8.38142         0.316220      0.062000     -0.586162
Pb       3.77902     11.77863     12.60689         0.015171      0.056742     -0.307005
Pb      15.41013     11.64356     12.39853         0.333371     -0.230699      0.203352
Pb       7.80126      4.05488      4.11463        -0.379831     -1.124593      0.020190
Pb       7.66783      3.68329      0.08420        -0.007678     -0.012418     -0.425695
Pb       7.78255      0.03264      4.11796         0.111863      0.006468     -0.140272
Pb       7.80688     15.38241     16.58150        -0.589974      0.793840      0.355395
Pb       7.81787      3.99353      8.13084        -0.378497     -0.553263      0.439201
Pb       7.74050     15.54431      8.42445         0.376437      0.518941     -0.078682
Pb       7.75775      4.17670     12.44454         0.265074     -2.112379      0.969780
Pb       7.82557      0.12549     12.46836         0.496407     -0.005840      0.086915
Pb       7.64611      7.77294      4.01893         0.316979      0.137471      0.494715
Pb       7.92840      7.73940     16.59093        -0.453247      0.126807      0.276857
Pb       7.73875      7.79624      8.43625         0.493265     -0.070865     -0.251205
Pb       7.74107      7.90512     12.57745         0.439794     -0.106042     -0.225505
Pb       7.73328     11.70136      4.11579         0.133139      0.397581     -0.535441
Pb       7.87585     11.49856      0.01919        -0.286192      0.146791     -0.053835
Pb       7.63909     11.60224      8.40394         0.930393      0.044191      0.534356
Pb       7.70261     11.70533     12.55423        -0.044834      0.202870     -0.117414
Pb      11.58044      4.03568      4.06222         0.495660     -0.410236      0.302612
Pb      11.67136      3.69632     16.37890         0.303790      1.015988      1.019493
Pb      11.93835      0.22399      4.20474        -0.657514     -0.328978      0.054824
Pb      11.74844     15.56083      0.05113        -0.104829      0.002274     -0.359691
Pb      11.70746      3.69235      8.10786        -0.521072      0.113113      0.478575
Pb      11.68830     15.38814      8.23276        -0.499808      0.440764      0.290881
Pb      11.56240      3.93177     12.39887         0.198130     -0.438106     -0.072808
Pb      11.89344     15.59756     12.52713        -1.143609     -0.179227     -0.579002
Pb      11.68212      7.88509      4.08075         0.192675     -0.122740      0.057599
Pb      11.65958      7.72882     16.55473         0.233618     -0.039390     -0.108950
Pb      11.72978      7.79075      8.13499        -0.789811      0.470229      0.387280
Pb      11.89050      7.52172     12.41146        -0.888134      1.378416      0.682989
Pb      11.50319     12.04451      4.16119         0.595724     -0.765796      0.462208
Pb      11.78812     11.78387      0.00427        -0.362652     -0.334163      0.137154
Pb      11.61053     11.51817      8.09810        -0.011924      0.389342      0.836891
Pb      11.59851     11.56325     12.45794         0.243654     -0.303477     -0.337942
Ti       1.90440      1.84022      2.17436         0.601660      0.420414      1.557014
Ti       2.01113      1.89606     14.51116        -1.148628     -0.013313      0.929116
Ti       1.89273     13.60374      2.26131         0.506296      0.443692     -1.052439
Ti       1.92731     13.74572     14.61842         0.266788     -0.917419      1.457684
Ti      13.67714      1.99468      2.14387         0.353743     -0.123376      0.535874
Ti      13.71903      1.88646     14.66070         0.631110      0.201677      0.121512
Ti      13.63618     13.70539      2.29647         0.444848     -0.634087      0.144033
Ti      13.63969     13.66439     14.75715         0.491343     -0.218095     -0.403147
Ti       2.10573      1.96896      6.47110        -0.224339     -0.404180     -0.324760
Ti       2.04997     13.68822      6.46570        -1.445888     -0.129120      0.082923
Ti      13.77269      1.90419      6.46830        -0.840175      0.183485     -1.165370
Ti      13.65318     13.66620      6.37742         0.590203     -0.938354     -0.683564
Ti       1.92974      2.06649     10.43348         0.407579     -0.860476     -0.248452
Ti       1.85546     13.69548     10.50032         0.456764     -0.909188     -0.026727
Ti      13.59245      1.91112     10.39249        -0.670489      0.440452      0.652747
Ti      13.63213     13.53475     10.41782        -1.247849      0.095766      0.382587
Ti       1.91590      5.82962      2.26914         0.619678      0.223225      0.002331
Ti       1.85079      5.78176     14.69668         0.545306      0.998523      0.066260
Ti      13.64470      5.84376      2.22079         0.071599      0.402960     -1.642380
Ti      13.63003      5.80472     14.64924        -0.364693      0.771533      0.189567
Ti       1.88758      5.80236      6.35914         1.091788      1.158324     -0.488925
Ti      13.56585      5.80403      6.48820         0.650164      0.242742     -1.088273
Ti       1.99220      5.87583     10.48903        -0.997316      0.442300     -0.252418
Ti      13.62940      5.85361     10.41030         0.835588     -0.653594      0.403519
Ti       1.99075      9.78289      2.26920         0.219703     -0.701182      0.075600
Ti       1.87077      9.76643     14.61854        -0.092576      0.212001      0.344536
Ti      13.73164      9.82038      2.17191        -0.512888      0.110297     -0.544030
Ti      13.55376      9.79290     14.69622         0.621135     -1.036590     -0.239339
Ti       1.93650      9.89508      6.32618        -0.152467     -1.288920      0.188378
Ti      13.65904      9.78646      6.21516        -0.038103     -0.256697      0.848162
Ti       2.00134      9.76186     10.54172        -0.924804      0.267617     -0.381951
Ti      13.65623      9.67652     10.40442        -0.632070      0.278542      1.198015
Ti       5.79483      1.88602      2.28339         0.403054      0.647940      0.799113
Ti       5.77117      1.89017     14.68566         0.976485     -0.240659     -0.076013
Ti       5.77543     13.66468      2.21839         0.749249     -0.390736     -0.803634
Ti       5.81847     13.64019     14.70567        -0.435035      0.192085     -0.570770
Ti       5.86936      1.89358      6.42800         0.763450      0.540189     -1.143855
Ti       5.83112     13.59099      6.53109         0.283899      1.249589     -0.850303
Ti       5.80221      1.85130     10.57327         1.401783      2.173826     -0.441773
Ti       5.78176     13.56156     10.52383         0.081401     -0.106057      1.216261
Ti       5.80783      5.77448      2.22076        -1.636841      0.204289     -1.748107
Ti       5.68157      5.80569     14.78900         0.029752     -0.532108      0.944804
Ti       5.75257      5.84677      6.26166         1.652304     -0.656504      1.232114
Ti       5.85207      5.82777     10.72055         0.054834      0.022669     -2.101279
Ti       5.80080      9.66979      2.21119        -0.114349     -0.005016     -0.842507
Ti       5.77239      9.59579     14.73284         0.473064      1.188121     -0.643755
Ti       5.92986      9.75301      6.35850        -0.810426     -1.278659     -1.076398
Ti       5.82386      9.68702     10.64002         0.276275     -0.158023     -0.401103
Ti       9.77813      1.94783      2.17810        -0.809971     -0.247691      0.408491
Ti       9.74218      1.85298     14.78013        -1.272020      0.009210     -1.760117
Ti       9.70853     13.67775      2.16964        -0.588634      0.385412      1.139331
Ti       9.67829     13.65392     14.71969         0.266074     -0.572611     -0.787447
Ti       9.74205      1.94185      6.21830        -0.633546     -0.347713      0.650806
Ti       9.61089     13.67985      6.45427         0.167529     -0.228223     -0.944958
Ti       9.72883      1.90393     10.46591        -0.647754     -0.340424      0.286920
Ti       9.72151     13.56310     10.53980         0.372754      0.583524     -0.672629
Ti       9.74336      5.91255      2.21353        -0.007746     -0.993456     -0.632469
Ti       9.63966      5.74536     14.74314         0.568438      0.341568     -0.013008
Ti       9.72175      5.84026      6.29391        -0.768682      1.015946      0.085513
Ti       9.74678      5.78101     10.43782        -0.319210      0.933708      0.572309
Ti       9.75727      9.75996      2.34137        -0.185121     -0.016357     -1.177962
Ti       9.79745      9.76299     14.76405        -0.761733     -0.334219     -0.204564
Ti       9.62466      9.75960      6.30654         0.883216     -0.800878     -0.965512
Ti       9.73061      9.60768     10.66520         0.856656     -0.286866     -1.043788
O       2.09417      1.83037      0.46370        -0.386000     -0.002907     -0.861725
O       1.90825      2.03527     12.73007         0.103726     -0.387586      0.575541
O       1.97114     13.69539      0.44145        -0.166475     -0.325770      1.211971
O       1.90464     13.66659     12.87912        -0.048785     -0.187043     -1.152476
O      13.74523      1.87561      0.38677        -0.417907      0.419507     -0.115379
O      13.69610      1.76206     12.85003         0.229850      0.134543     -0.023866
O      13.70774     13.59031      0.50117        -0.467266      0.426847     -0.219897
O      13.77822     13.81359     12.97334        -0.277546     -0.191510     -0.036119
O       1.96839      1.82722      4.70140        -0.288690      0.265966     -0.458954
O       1.93149     13.68161      4.66444         0.257265      0.086552      0.053813
O      13.63193      1.92666      4.66966         0.535680     -0.090147     -0.412366
O      13.54574     13.57197      4.54929         0.467232      0.367262      0.515915
O       1.97447      2.00273      8.61712         0.097458     -0.406393      1.006750
O       1.75643     13.68764      8.73119         0.631051     -0.287805     -0.337126
O      13.59593      1.95030      8.62265        -0.076742     -0.243444      0.389409
O      13.58928     13.50376      8.65361         0.095032      0.442270     -0.269721
O       1.94763      5.90820      0.50216        -0.534656     -0.270814     -0.468154
O       1.75644      5.92200     12.94006         0.499942     -0.624686     -0.599931
O      13.72396      5.86758      0.38042        -0.256840     -0.082595      0.949972
O      13.59212      5.78058     12.86903         0.081963     -0.164979     -0.389734
O       1.96647      5.90246      4.58215        -0.343715     -0.871546      0.115055
O      13.68090      5.80510      4.71446        -0.001419      0.114973     -0.394196
O       1.91237      5.88889      8.69801         0.506866      0.343687      0.432682
O      13.69256      5.81420      8.66224        -0.380826      0.081502     -0.918103
O       1.98112      9.81139      0.48690        -0.031371      0.067864     -0.319161
O       1.96071      9.72632     12.82494         0.109346      0.112378      0.348617
O      13.73540      9.80195      0.29153        -0.207890     -0.023763      1.555712
O      13.47250      9.78445     12.92244         0.293782      0.420421     -0.025855
O       1.92730      9.85278      4.58039         0.277715      0.089043     -0.795383
O      13.66876      9.67124      4.46253        -0.195524      0.471667     -0.157190
O       1.90768      9.71024      8.71451         0.281060     -0.080482     -0.026624
O      13.68693      9.72041      8.65847        -0.172859     -0.036264     -0.381196
O       5.70350      1.92512      0.53402         0.107507      0.327632     -1.621133
O       5.67322      1.74363     12.91147         0.195696      0.281648     -0.323858
O       5.87344     13.66989      0.42022        -0.497945      0.032263      0.650386
O       5.84870     13.72289     12.89068        -0.082217     -0.316861     -0.616311
O       5.94125      1.97051      4.61501        -0.223295     -0.539882      0.628496
O       5.83985     13.64715      4.72254         0.046248     -0.160468     -0.066474
O       5.79752      2.02497      8.79686        -0.072052     -0.192693     -0.444207
O       5.90767     13.57037      8.78504        -0.630471     -0.083973     -0.929427
O       5.59162      5.87247      0.37838         0.758840     -0.642741      0.883490
O       5.58660      5.75588     13.01450         0.633763      0.228035     -1.029078
O       5.82193      5.88347      4.53130        -0.199831     -0.258829     -0.824786
O       5.82426      5.77526      8.90320        -0.070764      0.185232     -0.049024
O       5.74910      9.69098      0.38577         0.194618      0.351275     -0.102517
O       5.82202      9.66924     12.87783        -0.071548     -0.155359      0.395688
O       5.84346      9.61281      4.53552         0.153105      0.788297      1.040784
O       5.96247      9.65887      8.79358        -0.678100     -0.013252     -0.336842
O       9.77343      1.87224      0.36312         0.230056      0.088524      0.723368
O       9.65247      1.78351     12.97905         0.381393      0.453712      0.232769
O       9.73583     13.66625      0.41899         0.080441      0.178946     -0.624558
O       9.58556     13.61521     12.92591         0.292096     -0.283249     -0.212466
O       9.67875      2.10949      4.43176         0.280327     -0.650173      0.712615
O       9.61018     13.50824      4.59764        -0.101568     -0.035720      0.722045
O       9.72488      1.91267      8.69298         0.201827     -0.057717      0.058180
O       9.79814     13.76377      8.67440         0.044818     -0.251516      0.930543
O       9.65550      5.90848      0.41468         0.195350      0.081046      0.197006
O       9.76619      5.64777     12.95636        -0.127066      0.212826      0.100312
O       9.78528      5.82741      4.49398        -0.117187     -0.315898      0.398943
O       9.59217      5.97834      8.69584         0.382952     -0.432125     -0.315658
O       9.61054      9.66061      0.52098        -0.311470      0.029095     -0.446457
O       9.85351      9.78345     13.00371        -0.438116      0.245181     -1.297193
O       9.54985      9.73882      4.45280         0.262589      0.325357      1.042763
O       9.67204      9.47900      8.88782         0.057336      0.392810     -0.670529
O       3.90636      1.82546      2.62073        -1.392823     -0.058983      0.195072
O       3.87535      1.76500     15.04433        -0.743504      0.514709     -0.498304
O       3.83726     13.81629      2.55438         0.626815     -0.422425      0.124652
O       3.92012     13.83355     14.96016        -0.715184     -0.389693      0.071947
O       0.02419      2.04766      2.46574        -0.610626     -0.433525      0.393461
O       0.02295      1.88404     14.98733         0.189837      0.481599     -0.306583
O      15.56444     13.54737      2.58834        -0.165802      0.136642      0.053895
O       0.04669     13.51140     15.11491        -0.826367      0.594459     -0.346142
O       3.97718      1.90806      6.70805        -0.781587      0.296966      0.166613
O       3.93474     13.54233      6.71581        -0.169093      0.210933      0.406054
O       0.01245      1.91938      6.75227         0.461874      0.123310     -0.147160
O       0.06642     13.44741      6.66429        -0.824783      0.659764     -0.117086
O       3.82054      1.88641     10.79368        -0.220676      0.227702     -0.207604
O       3.83867     13.62855     10.80282         0.270199     -0.039797     -0.041282
O       0.03227      2.02657     10.64517        -0.840562     -0.418322      0.004513
O      15.49423     13.46551     10.73901         0.859040      0.302920      0.311443
O       3.84750      5.81436      2.62793        -0.006111     -0.183299      0.055639
O       3.73478      6.06252     15.12819         0.770203     -1.273366     -1.019475
O      15.54918      5.81891      2.50539         0.198701      0.021958      0.533229
O      15.55147      5.80545     15.03871        -0.162845     -0.101767      0.159790
O       3.95242      5.90614      6.69504        -0.964762     -0.523897      0.097333
O       0.07653      5.85932      6.70243        -1.033523     -0.301036     -0.123469
O       3.88040      5.86483     10.90341        -0.766064      0.287024     -0.269522
O      15.50641      5.81129     10.72359         0.870763     -0.213149      0.340553
O       3.88342      9.58002      2.56725        -0.044588      0.852177      0.289704
O       3.85418      9.80154     14.92999         0.277717     -0.690424      0.106172
O       0.05254      9.79274      2.40361        -1.086370     -0.091681      0.514739
O      15.58699      9.93316     14.90087        -0.025858     -0.223838      0.075864
O       3.94306      9.84995      6.57657         0.372539     -0.463484      0.486907
O      15.59997      9.88232      6.45366        -0.165916     -0.280083      0.644737
O       3.89099      9.59370     10.75738        -0.160282     -0.306986      0.156195
O      15.57273      9.80125     10.90633        -0.324107     -0.402689     -0.472671
O       7.75535      2.02258      2.39422         1.375027      0.052383      0.192887
O       7.78510      2.01597     15.00286        -0.571208     -0.202406      0.403878
O       7.73019     13.60915      2.48375         0.349373      0.124408      0.290636
O       7.73226     13.62268     15.01555         1.104921     -0.340568      0.198241
O       7.82888      1.99106      6.68460         0.427207     -0.369176     -0.037343
O       7.75448     13.63695      6.92628         0.068989     -0.126386     -0.623173
O       7.71176      1.99129     10.90776         0.403223     -0.258098     -0.165891
O       7.72722     13.51783     10.74642         0.458640      0.152844      0.240914
O       7.66341      5.83251      2.49670         1.566741     -0.380929     -0.109753
O       7.72786      5.78700     14.97973        -0.117493     -0.053885     -0.083211
O       7.79324      5.81009      6.55208         0.082705     -0.144994      0.061637
O       7.81739      5.77008     10.91558        -0.377000      0.595764     -0.248492
O       7.67224      9.67039      2.48407         0.412612      0.239287      0.154010
O       7.79512      9.72044     14.86290        -0.788751      0.306866      0.673927
O       7.78165      9.72967      6.77096        -0.247133     -0.084689     -0.257653
O       7.77442      9.70422     10.83997        -0.161911      0.004511      1.021469
O      11.77112      1.89302      2.49412        -0.755870      0.226137     -0.172868
O      11.68867      1.83618     14.94661         0.792070     -0.233484      0.195421
O      11.66481     13.67739      2.59027        -0.097967      0.344380     -0.630581
O      11.67770     13.75492     15.01939         0.470441      0.032523      0.139211
O      11.69299      1.83938      6.60665        -0.447257     -0.008020      0.079594
O      11.74430     13.68522      6.58537        -0.806187     -0.208819      0.270924
O      11.63760      1.90931     10.84773         1.357535     -0.252615     -0.280507
O      11.72135     13.80323     10.86818        -0.330859     -0.559795     -0.145810
O      11.71186      5.92067      2.53268        -0.161401     -0.048675     -0.131764
O      11.66957      5.87073     14.98720         0.178509     -0.461310      0.156468
O      11.66730      5.78626      6.66791         0.502110      0.267242      0.127163
O      11.64312      5.86204     10.77853         0.833853     -0.423847     -0.212034
O      11.59009      9.55709      2.33295         0.918441      0.441770      0.632455
O      11.62847      9.78906     15.08398         1.112574     -0.242067      0.411423
O      11.55942      9.68799      6.57260         0.931967      0.330553      0.094501
O      11.64016      9.67511     10.87780         1.023412      0.049430     -0.221175
O       1.91215      3.83288      2.48301         0.379600     -0.004739      0.343184
O       1.96170      3.88369     15.00572         0.073510     -0.882249     -0.057986
O       1.72020     15.50645      2.64301         0.676464      0.918082     -0.517282
O       1.85587     15.60721     14.96823        -0.037770      0.561427     -0.371455
O      13.64755      3.91429      2.50710        -0.060670     -0.051758      0.153708
O      13.63799      3.81611     14.84932        -0.049459     -0.006814      0.481034
O      13.68990      0.06167      2.58330         0.191832     -0.757539     -0.180255
O      13.74962     15.60788     15.13894        -0.446546     -0.536949     -0.294919
O       1.96168      3.86779      6.78844         0.278205      0.825447     -0.763610
O       2.04680      0.03974      6.79704        -0.384300     -1.024277     -0.032988
O      13.67630      3.82830      6.62091         0.040218      0.862278      0.589109
O      13.79724     15.54805      6.69074        -0.294164     -0.237432      0.067934
O       2.03335      3.94629     10.64185        -0.422822     -0.271775      0.411637
O       1.88598     15.53358     10.72049        -0.221447      0.876852     -0.019333
O      13.60974      3.84373     10.79781        -0.247815     -0.343339     -0.225657
O      13.75196     15.55298     10.76911        -0.245014      0.699667     -0.520040
O       1.95857      7.74426      2.60192        -0.549473      0.809608     -0.075105
O       1.81181      7.77427     14.98887        -0.183887      1.392568      0.092080
O      13.65938      7.83187      2.53897         0.274633     -0.199437     -0.206087
O      13.59419      7.79234     14.77366         0.191861      0.100372      0.917166
O       2.01776      7.81185      6.52997        -0.208904      0.263895      0.671654
O      13.70311      7.86674      6.63901        -0.272400     -0.651452     -0.022931
O       1.83566      7.75777     11.00922         0.631054     -0.014106     -1.153172
O      13.66844      7.78278     10.81836        -0.219358     -0.430489     -0.326702
O       1.97444     11.71969      2.67756         0.388696     -0.175486     -0.338963
O       2.07372     11.73438     14.94711        -0.038072     -0.298985     -0.018977
O      13.54138     11.70423      2.53934         0.098862     -0.733221     -0.306827
O      13.48185     11.75854     14.93634         0.291614      0.077444      0.156196
O       2.03927     11.72446      6.70449         0.092531     -0.018874      0.160812
O      13.55562     11.66464      6.74518         0.163402     -0.197050     -0.708281
O       2.00026     11.60018     10.78246        -0.024496      0.790901      0.270419
O      13.56790     11.61204     10.76816        -0.131315      0.711283      0.186561
O       5.75303      3.84712      2.61981         0.031421      0.720891     -0.252233
O       5.69366      3.83370     14.96112        -0.174427      0.306464      0.452906
O       5.92934      0.02041      2.56281        -0.316764     -1.399717      0.269131
O       5.92684     15.60751     15.08504        -0.033495      0.267791      0.107794
O       5.86270      3.84090      6.69177        -0.350721      1.289795      0.064284
O       5.80830     15.60077      6.77805         0.214747     -0.761920      0.321303
O       5.79106      3.87019     10.93785        -0.339306      0.266941      0.263834
O       5.72528      0.03808     10.63497         0.212404     -2.248446      0.486391
O       5.80374      7.70097      2.47714        -0.116367      0.733266      0.235442
O       5.78328      7.75058     14.99860         0.214380      0.489546     -0.215237
O       5.86544      7.74400      6.64899        -0.117535      0.849600      0.253137
O       5.89870      7.69266     10.91377        -0.009904      0.873586      0.344613
O       5.77882     11.68869      2.47505        -0.390418      0.044047      0.509445
O       5.74381     11.75804     14.87538         0.119810     -0.948371      0.413509
O       5.91081     11.66093      6.71446        -0.023762     -0.392023     -0.040510
O       5.73821     11.54721     10.82299         0.142721      1.449463      0.276208
O       9.83500      3.91704      2.46667        -0.323093     -0.150402     -0.262830
O       9.79281      3.82884     15.06422        -0.204067      0.357386     -0.082823
O       9.71028     15.58756      2.61387         0.003413      0.488866     -0.519256
O       9.67511     15.51804     14.97514        -0.000245      0.598558      0.503968
O       9.79291      3.89463      6.55717         0.060820     -0.228051      0.278245
O       9.64918     15.53489      6.51171         0.226214      0.944843      0.197542
O       9.80694      3.87899     10.75540        -0.258213      0.073551      0.210233
O       9.65687      0.02413     10.82365        -0.304016     -0.769466     -0.046294
O       9.66604      7.68615      2.66915        -0.142362      1.209033     -0.605239
O       9.69616      7.79054     15.04599         0.173294     -0.419545     -0.193319
O       9.76535      7.81253      6.63893        -0.275314     -0.448462     -0.325075
O       9.72097      7.71755     10.97564        -0.429833     -0.386068      0.226782
O       9.68021     11.71376      2.38951         0.085196     -0.327895      0.549825
O       9.80752     11.70193     15.07298        -0.431876      0.138237      0.217522
O       9.66423     11.68039      6.68796         0.076518     -0.494611      0.071012
O       9.82345     11.65793     10.68916        -0.290774      0.976414      0.645122
