  # total energy = -7881.53300278 
CRSYTAL
PRIMVEC
    15.6080000000000005    0.0000000000000000    0.0000000000000000
     0.0000000000000000   15.6080000000000005    0.0000000000000000
     0.0000000000000000    0.0000000000000000   16.6239999999999988
PRESSURE
-0.458042 -0.303187 -0.512456 -0.025797 -0.130766 0.0437
PRIMCOORD
320 1
Pb       4.05224      3.97189      4.24965        -0.925521     -0.010941     -0.596879
Pb       3.95326      3.97326     16.52831        -0.569516     -0.054771      0.372495
Pb       3.93881      0.10883      4.05310        -0.192466     -0.374736      0.178126
Pb       3.82932      0.00607     16.44704         0.181773     -0.259849      0.219162
Pb       0.03316      3.85748      4.14307        -0.031752      0.030739      0.173442
Pb      15.58355      3.76420     16.60554        -0.139504      0.451607     -0.095089
Pb      15.49794      0.00805      4.08118        -0.097703     -0.202352      0.182790
Pb      15.56775      0.04375     16.59486        -0.342635     -0.428334     -0.377457
Pb       3.81839      3.81836      8.24683        -0.046237      0.285332      0.008976
Pb       3.97287     15.60541      8.16094        -0.178285      0.068958      0.250082
Pb      15.52498      3.90234      8.30278         0.143797      0.306729      0.215151
Pb       0.01682     15.56573      8.24036        -0.282588     -0.071932      0.114297
Pb       3.71210      3.93216     12.64640         0.022198     -0.227307     -0.483804
Pb       3.85772     15.49526     12.55483        -0.006597     -0.083586     -0.327917
Pb      15.59672      3.95638     12.61061        -0.251420      0.235309     -0.782328
Pb       0.16786     15.56343     12.46770        -0.265917      0.113622     -0.000949
Pb       3.77490      7.89492      4.00572         0.425593     -0.746216      0.352322
Pb       3.93803      7.66378     16.57280        -0.509974      0.448221      0.726396
Pb       0.07439      7.86834      4.11669         0.117508     -0.604588      0.345997
Pb      15.50748      7.73750     16.59238         0.321696      0.144800      0.167187
Pb       3.86294      7.74581      8.34129        -0.230676     -0.079574     -0.328920
Pb      15.34749      7.71018      8.53169         0.751393     -0.097287     -0.560667
Pb       3.95977      7.82979     12.40460        -0.164361      0.234772      0.144132
Pb      15.40614      7.73657     12.51979         0.498095      0.260041     -0.535615
Pb       3.83253     11.69078      4.06038         0.290063      0.092875      0.052687
Pb       3.92935     11.64441     16.55861         0.013269      0.438563     -0.082669
Pb      15.56047     11.72107      4.11820         0.065883      0.276709     -0.011195
Pb      15.54248     11.78057     16.60958        -0.241927     -0.181516     -0.158771
Pb       3.84937     11.89019      8.29917        -0.072348     -0.683862      0.129451
Pb       0.04041     11.63973      8.11701        -0.301391      0.266939      0.323149
Pb       3.93267     11.63182     12.25331         0.171260      0.059813      0.904795
Pb       0.08182     11.59657     12.41855         0.019227     -0.027611      0.190600
Pb       7.77710      3.67012      4.14373         0.422685      0.422778     -0.352480
Pb       7.85550      3.92756     16.54079        -0.044123      0.136637      0.436072
Pb       7.80622     15.48548      4.15313         0.059409     -0.359886     -0.244188
Pb       7.82969      0.12335     16.56072        -0.260557     -0.977041      0.523445
Pb       7.67566      3.79456      8.54003         0.085113      0.357420     -0.439112
Pb       7.82275     15.60394      8.26708         0.099726      0.031170      0.053564
Pb       7.78364      3.61822     12.48927         0.332225      0.510107      0.829006
Pb       7.79642     15.54030     12.49106         0.149761     -0.458713     -0.234510
Pb       7.93773      7.81865      4.13193        -0.908016      0.321237      0.082892
Pb       7.67237      7.80089     16.55586         0.350605      0.032168      0.371397
Pb       7.88398      7.85758      8.17537        -0.422034     -0.365391      0.032907
Pb       7.88890      7.60999     12.38228        -0.181017      0.824712      0.986479
Pb       7.87347     11.66795      4.08662        -0.323615      0.007640      0.354949
Pb       7.77301     11.80279     16.48627        -0.251714     -0.086279      0.142298
Pb       7.73944     11.71232      8.20570         0.161656     -0.231708      0.018473
Pb       7.83302     11.56336     12.37893        -0.147548      0.625369      0.498641
Pb      11.76685      3.77061      4.29777         0.284653      0.097290     -0.584269
Pb      11.71741      4.10777      0.27701         0.012868     -0.444744     -0.513040
Pb      11.41757     15.54207      4.14855         0.563620     -0.333757      0.038186
Pb      11.66294     15.59164     16.49579         0.494017      0.043199      0.545535
Pb      11.65710      4.13652      8.42879        -0.018195     -0.628974     -0.182595
Pb      11.62610      0.13794      8.37642         0.127724     -0.190066     -0.252835
Pb      11.83156      3.74543     12.48997        -0.250290      0.478234     -0.418715
Pb      11.54423     15.50654     12.35406         0.428579      0.415792      0.604383
Pb      11.63672      7.65999      4.05464         0.130462      0.257861      0.393562
Pb      11.69210      7.85129      0.02167        -0.188710      0.064380      0.381782
Pb      11.65850      7.81437      8.30677        -0.287603     -0.255056     -0.348902
Pb      11.46368      7.99487     12.50034         0.631281     -0.521075      0.335463
Pb      11.83839     11.37940      4.21938        -0.424007      0.930063      0.025620
Pb      11.78951     11.65554     16.59115        -0.096030     -0.094517      0.081066
Pb      11.77884     11.89388      8.42935         0.209121     -0.109320     -0.846004
Pb      11.78008     11.76811     12.40683        -0.187245     -0.546243      0.592476
Ti       1.89332      1.90937      2.19362         0.071657      0.838769     -0.120326
Ti       1.94807      1.98733     14.68727        -0.351728     -0.388229     -0.045534
Ti       1.88157     13.66639      2.17838        -0.672518      0.141763     -0.423269
Ti       1.93065     13.56490     14.65423        -0.282355      0.487133      0.067853
Ti      13.61120      1.85298      2.23657        -0.113263      0.716720     -0.725012
Ti      13.67164      1.97684     14.62768        -0.735921     -0.509825      1.864339
Ti      13.49228     13.59008      2.26571         0.567271      0.101428     -0.129610
Ti      13.60367     13.64707     14.54370         0.654408      0.075013      0.934444
Ti       1.86541      1.95354      6.37773        -0.139546      0.711995      0.068683
Ti       1.93261     13.71060      6.23740        -1.151482     -0.608612      0.189629
Ti      13.61100      1.89112      6.51863        -0.427214      0.425122     -0.424664
Ti      13.55426     13.63278      6.32840         0.314821     -0.213020      0.258109
Ti       1.91760      1.99099     10.56198        -0.052682     -0.267608     -0.293919
Ti       1.91318     13.63465     10.48254         0.093646      0.038537      0.383340
Ti      13.68361      1.86909     10.56225        -0.109992      0.819195     -0.562669
Ti      13.72019     13.66228     10.55599         0.149985     -0.356032     -1.355196
Ti       1.93871      5.79099      2.22784         0.266677      0.123883     -0.758664
Ti       1.86500      5.93695     14.70924        -0.566964     -1.008980      0.888107
Ti      13.69528      5.73907      2.22762        -0.119119      0.750026      0.315262
Ti      13.57026      5.85301     14.71500         0.537186     -0.638757     -0.146542
Ti       1.86136      5.93177      6.33764        -0.660500      0.011753     -0.185396
Ti      13.57721      5.80932      6.38904         0.334948      0.258379     -0.301625
Ti       1.97098      5.88674     10.59470        -1.209783      0.195277     -0.882947
Ti      13.57035      5.84564     10.60476         0.374395     -0.279953      0.784189
Ti       1.92961      9.81053      2.11555        -0.210596     -0.930253     -1.025793
Ti       1.96450      9.79202     14.65572        -0.671585     -0.533835      0.570277
Ti      13.70645      9.61597      2.28329        -0.473991      0.509128     -1.645191
Ti      13.65302      9.66847     14.69128        -0.637679      1.010513     -0.366289
Ti       2.01303      9.76162      6.27279        -1.950052     -0.777547      0.576438
Ti      13.67376      9.62075      6.40759         0.181535      0.620279      0.491726
Ti       2.04215      9.69383     10.45786        -1.348983     -0.000767      0.543367
Ti      13.67484      9.79371     10.55566         0.559245     -0.630218      1.606740
Ti       5.80395      1.99381      2.12430         0.214016     -0.866043      1.198272
Ti       5.90309      1.94704     14.73842        -0.540768     -0.468686     -0.173836
Ti       5.76144     13.71134      2.17073         1.226732     -0.329082     -0.838858
Ti       5.83811     13.63057     14.65640        -0.179945      0.128983     -0.269782
Ti       5.91915      1.94433      6.29116        -0.094172     -0.168717      0.040401
Ti       5.79350     13.60548      6.26288         0.728540      0.290988     -0.607745
Ti       5.73413      1.84099     10.68490         0.278448      0.144931      0.212298
Ti       5.78937     13.63208     10.50068         1.281814     -0.234034      0.058043
Ti       5.86712      5.82737      2.25528        -0.665306      1.440042     -0.202898
Ti       5.76046      5.91873     14.62838         1.546414     -0.850327      0.219176
Ti       5.72165      5.85038      6.35075         1.182540      0.289596      0.119885
Ti       5.87934      5.64381     10.69164        -0.318035      0.688543     -1.206439
Ti       5.80601      9.82840      2.19334         0.768662     -0.832376     -0.108477
Ti       5.75970      9.77511     14.68502         1.515778      0.236029     -1.229970
Ti       5.73300      9.75728      6.33970         0.952653     -0.791463     -0.570271
Ti       5.98531      9.63745     10.52115         0.116763      0.269778     -0.259403
Ti       9.73940      1.90327      2.12372        -0.042133      0.262179      0.289619
Ti       9.85423      1.98729     14.73703         0.103530     -0.966307     -0.565278
Ti       9.68031     13.56089      2.15427         0.038342      0.668254      0.274016
Ti       9.77576     13.58043     14.68456        -0.560958      0.413240     -0.132703
Ti       9.77130      2.04415      6.38865         0.244645     -1.078039      0.733247
Ti       9.69892     13.65592      6.41517         0.583397      0.163240     -1.005785
Ti       9.78356      1.91241     10.57368        -0.276075      0.075354     -0.058899
Ti       9.79360     13.58898     10.43846        -1.562667      0.653817     -0.485955
Ti       9.71062      5.78150      2.23735         0.115650      0.213782     -0.308903
Ti       9.73738      5.83644     14.76615         0.135093      0.280986     -0.505308
Ti       9.58879      5.77368      6.26301         0.506422      0.941828      0.414858
Ti       9.72413      5.72450     10.68773         1.100033     -0.088303     -0.313612
Ti       9.78298      9.79266      2.17430        -0.253225     -0.907880     -0.832693
Ti       9.69668      9.69066     14.81448         0.141032      0.324651     -0.889215
Ti       9.78241      9.76877      6.32185         0.076438      0.280287     -0.151800
Ti       9.82153      9.79692     10.43477        -0.576667     -0.391053     -0.301032
O       1.85803      1.93918      0.38607        -0.020695     -0.219953      0.013849
O       1.97473      1.93200     12.89325         0.021897      0.067955     -0.105393
O       1.77016     13.60425      0.34664         0.265407      0.211669      1.162029
O       1.98826     13.61869     12.86937        -0.151461      0.058441     -0.509759
O      13.61193      2.04836      0.44904         0.318969     -0.460618      0.113617
O      13.49288      1.97099     12.92381         0.502356     -0.223769     -2.066809
O      13.63700     13.55736      0.48773        -0.167115      0.061436     -0.045279
O      13.50749     13.57466     12.77647         0.084232      0.470955      0.156195
O       1.75978      1.94994      4.61825         0.252390      0.000497      0.262402
O       1.87281     13.55888      4.48467         0.386292      0.487002     -0.086327
O      13.61272      2.04175      4.73784        -0.096183      0.067462     -0.915203
O      13.51001     13.65954      4.54314         0.232985     -0.051725      0.535130
O       1.86612      1.91584      8.77782         0.235442      0.009457     -0.263347
O       2.00873     13.50394      8.71265        -0.167877      0.533414     -0.360804
O      13.53920      1.84962      8.75442         0.862066      0.087858      0.764027
O      13.74352     13.48904      8.68862        -0.336744      0.359677      0.979794
O       1.98781      5.84624      0.39539         0.020790     -0.369104      0.545587
O       1.79331      5.71046     12.94997         0.612523      0.292635     -1.023731
O      13.62981      5.85445      0.41639        -0.196935     -0.262791      0.171033
O      13.76516      5.83410     12.93062        -0.336121     -0.177085     -0.248379
O       1.72031      5.91338      4.51710         0.471045     -0.543298      0.399142
O      13.61533      5.83690      4.60373        -0.096288     -0.087186     -0.266229
O       1.99438      6.14446      8.78894         0.304933     -0.872768      0.489882
O      13.52622      5.83580      8.83565         0.159233      0.250386     -1.058046
O       1.96341      9.74173      0.30648         0.191733      0.242964      1.101043
O       1.91299      9.77610     12.91044         0.262845     -0.081883     -0.351989
O      13.60695      9.62787      0.46112         0.076493      0.228059      0.303396
O      13.55644      9.74187     12.89978         0.311584     -0.049766      0.276460
O       1.74221      9.73888      4.48876         0.585941      0.078777     -0.255143
O      13.68432      9.58466      4.62165        -0.140733      0.425555     -0.749277
O       2.07912      9.72781      8.69716        -0.261556     -0.458732      0.099352
O      13.53029      9.60408      8.83272         0.146069      0.668194     -0.997895
O       5.68917      1.87314      0.40546         0.104752      0.334360     -1.355996
O       5.90988      1.79882     12.98153        -0.138884      0.098336     -0.846893
O       5.89106     13.66781      0.33809        -0.344427     -0.075679      1.234803
O       5.78955     13.67400     12.87313        -0.332507      0.031291     -0.917595
O       5.92114      2.00217      4.49384        -0.126978     -0.058792      0.531981
O       5.76179     13.62846      4.47524        -0.182074     -0.056798      0.658561
O       6.11124      1.96290      8.96729        -0.729683      0.032641     -1.613200
O       5.77586     13.69308      8.69607        -0.077127     -0.291050     -0.338270
O       5.60380      5.97619      0.45848         0.524552     -0.762678      0.241845
O       6.03494      5.97731     12.89374        -1.031357     -0.690582     -0.266272
O       5.70235      5.73676      4.55737         0.398695     -0.043303     -0.040927
O       5.78760      5.51906      8.83609         0.254046      0.418860      1.258896
O       5.83009      9.74397      0.36575        -0.187403      0.032298      0.573271
O       5.87017      9.77812     12.87193        -0.066850     -0.064021     -0.136573
O       5.73651      9.81952      4.57738        -0.182320     -0.111054      0.191216
O       6.02047      9.59616      8.75112        -0.327684      0.315334      0.030388
O       9.80497      1.97875      0.35924         0.029794     -0.016159      0.425294
O       9.75678      1.69916     12.90160         0.304178      0.713014      1.124175
O       9.55438     13.62434      0.36938         0.291314     -0.124336      0.269748
O       9.74524     13.60896     12.88114         0.358270      0.354489      0.035522
O       9.65574      1.90109      4.59336         0.334312      0.265823     -0.320698
O       9.73242     13.77133      4.55966        -0.038031     -0.058301      0.994233
O       9.71834      1.97442      8.79236        -0.235165     -0.166491     -0.539387
O       9.75534     13.67514      8.60597        -0.319557     -0.548262      0.958200
O       9.85861      5.78513      0.42650        -0.333474     -0.157134      0.316730
O       9.82857      5.99655     12.96761        -0.399012     -0.603246      0.358564
O       9.58103      5.94683      4.49223         0.206883     -0.604642     -0.185333
O       9.74159      5.66931      8.92753        -0.194581      0.248463     -0.593973
O       9.85188      9.69000      0.30220        -0.845174      0.420186      1.558929
O       9.79566      9.79766     12.98275         0.041926     -0.318888      0.270756
O       9.82699      9.94291      4.47438        -0.269891     -0.973780      1.197261
O       9.78444      9.79775      8.62292        -0.144510     -0.138501      0.630505
O       3.84256      1.79734      2.52339         0.311982      0.397696     -0.145332
O       3.83800      1.89009     14.97714         0.229549     -0.144134     -0.050189
O       3.86853     13.72349      2.39952        -0.625509      0.151295      0.167211
O       3.85447     13.56824     14.89451        -0.509902      0.568876      0.638429
O      15.56301      2.06381      2.54659        -0.406739     -0.631968     -0.117575
O      15.53211      1.81456     14.94340         0.974739      0.833689      0.130805
O      15.48489     13.63118      2.57470         1.127572     -0.100533     -0.047919
O      15.54351     13.39135     14.83286        -0.117518      0.649326      0.099973
O       3.89503      1.86897      6.59288         0.329917      0.319442      0.257306
O       3.85037     13.61681      6.61070         0.174170      0.061929      0.038184
O      15.49744      2.00458      6.84863         1.003307     -0.615526     -0.275962
O       0.03583     13.66441      6.63080        -0.327064      0.154627     -0.099001
O       3.82962      1.90920     10.84053         1.022966      0.021767      0.226146
O       3.87900     13.52815     10.80526        -0.470224      0.463420     -0.128879
O       0.02951      1.92524     10.97419        -0.570073     -0.315878     -0.189133
O      15.57866     13.70127     10.86755         1.295582     -0.177734     -0.076627
O       3.78654      5.79840      2.56208         0.523327     -0.306300      0.306416
O       3.87630      5.84889     14.98042        -0.099552      0.096694     -0.544251
O      15.55037      5.82991      2.40673         0.106095     -0.332810      0.221394
O      15.59191      5.78735     15.02354        -0.133812      0.428088      0.323551
O       3.87333      5.79461      6.66927        -0.316889     -0.472765      0.188581
O      15.59653      5.93246      6.75136        -0.265108     -0.156405      0.249440
O       3.91509      5.93493     10.98123         0.552468     -0.540376      0.012731
O       0.00401      5.84084     10.79724         0.049161      0.125448      0.335623
O       3.86597      9.71591      2.57894        -0.438358      0.989972     -0.544196
O       3.94023      9.82494     14.84679        -1.318502     -0.673744      0.451969
O      15.60428      9.87426      2.33760         0.162775     -0.558017      0.570357
O      15.51090      9.76709     15.00223         0.760452      0.012391     -0.138573
O       3.79471      9.83288      6.65090         1.723935     -0.338234     -0.081054
O      15.54686      9.62396      6.79160         0.290187     -0.036744     -0.224402
O       3.95446      9.72988     10.79712         0.180596     -0.899303     -0.086928
O      15.59643      9.70652     10.93031        -0.269856     -0.261657     -0.607769
O       7.77459      2.10983      2.26051         0.044094     -0.252648      0.691274
O       7.83676      1.97235     15.08145        -1.050094      0.350103     -0.361842
O       7.75314     13.55159      2.60395         0.235160      0.091551     -0.346923
O       7.68361     13.62308     14.80983         1.967522     -0.179619      0.622954
O       7.86972      1.78416      6.60521        -1.364933      0.548720      0.282980
O       7.75725     13.66264      6.51189        -0.163377      0.070565      0.618772
O       7.88066      1.94705     10.97428        -0.835140     -0.484189     -0.245275
O       7.76164     13.61542     10.80472         0.347977      0.144481     -0.194686
O       7.78669      5.84989      2.33011        -1.174685     -0.092216      0.441479
O       7.72793      5.81154     15.16374         0.113305     -0.156510     -0.418577
O       7.76802      5.86530      6.62917        -0.598171     -0.221424      0.198399
O       7.86874      5.51645     11.06311        -0.754675      0.703797     -0.773784
O       7.72932      9.74658      2.64241         0.085483      0.277782     -0.769387
O       7.79195      9.79936     14.91019         0.010125     -0.125133      0.641461
O       7.76769      9.61872      6.55425         0.444833      0.373437      0.216877
O       7.92053      9.84012     10.86011        -0.817493     -0.398989     -0.500657
O      11.67406      1.87625      2.51868        -0.701519      0.201016      0.259938
O      11.71443      1.81787     14.95689        -0.369006      0.484878      0.013843
O      11.60579     13.67446      2.55645         0.045338      0.239308     -0.432178
O      11.66141     13.79147     15.01217        -0.315504     -0.452789     -0.391809
O      11.71383      2.06037      6.84027        -1.106019      0.037301     -0.540853
O      11.69624     13.58112      6.74054         0.064957     -0.191494     -0.202762
O      11.73036      2.01645     10.80897         0.493749     -0.982737      0.461756
O      11.67838     13.54477     10.67176         0.391085      0.150117      0.167899
O      11.57188      5.87450      2.61010         1.403838     -0.039814     -0.317268
O      11.71195      5.87831     15.06839        -0.301580     -0.418891     -0.291557
O      11.63675      5.83074      6.67850        -0.093159     -0.165816      0.004045
O      11.69794      5.79393     10.92153        -0.201143     -0.195025      0.089995
O      11.65690      9.56895      2.37553         0.521487      0.629721      0.833037
O      11.68077      9.56119     15.06014         0.077795      0.466210     -0.294227
O      11.67740      9.71922      6.64143        -0.181904      0.043204     -0.087363
O      11.69688      9.77217     10.96422        -0.219813      0.327374     -0.950669
O       1.90658      3.78160      2.60249         0.216652      1.069998     -0.325619
O       1.93062      3.89101     14.91694         0.086374     -0.695174      0.341551
O       1.77475      0.01666      2.58810         0.378252     -0.807720     -0.343951
O       1.78178     15.56008     14.91133         0.621699     -0.299577      0.223354
O      13.52510      3.88673      2.45317        -0.158565      0.378497      0.562994
O      13.73689      3.89103     14.89502        -0.406195     -0.111039      0.342765
O      13.68336      0.03228      2.51428        -0.163621     -0.738387      0.034680
O      13.66758     15.56847     15.00122         0.157561     -0.436914     -0.106741
O       1.85251      3.91042      6.75523         0.389931     -0.267410     -0.154431
O       1.85154      0.03677      6.62412         0.434868     -0.748676      0.157682
O      13.68834      3.98795      6.70934        -0.182777     -0.695207      0.464218
O      13.46383      0.00180      6.65083         0.815672     -0.679795      0.227618
O       1.98450      3.89105     10.80547         0.191716      0.548091      0.246892
O       1.97181     15.55982     10.77466        -0.102371     -0.542805      0.378104
O      13.74112      3.84681     10.77296        -0.413167     -0.006793      0.705040
O      13.70090     15.52656     10.84166        -0.401887      0.879511      0.042787
O       1.97287      7.78606      2.43023        -0.587528      0.495225      0.098142
O       1.93618      7.73989     15.00806        -0.010364      1.460249     -0.329957
O      13.70369      7.77089      2.59706        -0.161566     -0.268744     -0.284071
O      13.64388      7.76983     14.95834         0.380978     -0.122041      0.131670
O       1.96893      7.76831      6.48345         0.533493      0.804304      0.477469
O      13.59523      7.74683      6.83529        -0.207166      0.172447     -0.051788
O       1.89416      7.77825     10.97698         0.653345      0.474357     -0.070333
O      13.61107      7.78119     10.85978         0.225999      0.207187      0.115422
O       1.94041     11.72391      2.51348         0.165549      0.217145     -0.360110
O       1.98346     11.63872     14.99941        -0.195098      0.339036     -0.002147
O      13.60335     11.66843      2.57073        -0.351768     -0.581720      0.100346
O      13.41515     11.74506     14.95369         0.274336     -0.728961     -0.047779
O       1.85815     11.62387      6.50496         0.112360      1.168412      0.375911
O      13.72532     11.64753      6.62050        -0.400441      0.036159     -0.024960
O       1.86131     11.59484     10.70972         0.391440      0.784277      0.481239
O      13.83922     11.74500     10.94669        -1.230510     -1.048372     -0.713550
O       5.72912      3.88251      2.52645         0.054794      0.128709     -0.172038
O       5.65794      3.89898     14.85364         0.660136     -0.417351      0.417981
O       5.96650      0.00965      2.53120        -0.558159      0.107666     -0.052057
O       5.82964     15.56289     14.94648        -0.297722      0.891808      0.418642
O       5.88952      3.82639      6.69645        -0.120258     -0.643521     -0.261904
O       5.84942     15.53894      6.56053        -0.330955      0.664587      0.340686
O       5.83151      3.78346     11.06904        -0.197936      0.501870      0.113467
O       5.80261     15.58212     10.74216        -0.131244     -0.546838      0.755918
O       5.65674      7.78915      2.55722         0.769874     -0.347558     -0.209855
O       5.89190      7.76603     14.91689        -0.514755      0.960371      0.404460
O       5.76733      7.73340      6.69949        -0.144770      0.152390     -0.086163
O       6.10107      7.66517     10.87382        -0.770116      0.757934     -0.598054
O       5.80943     11.71287      2.46040        -0.535095      0.004374     -0.053892
O       5.77379     11.70373     14.99420         0.289911     -0.401449      0.140026
O       5.90912     11.62877      6.65488        -0.461465      0.978921      0.210968
O       5.80413     11.66803     10.71032         0.365111     -0.348113      0.163051
O       9.79816      3.91124      2.50017        -0.201633     -0.897874      0.140038
O       9.74858      3.89540     15.09008         0.122728     -0.176896     -0.493894
O       9.60014     15.53168      2.51851         0.214770      1.242591     -0.398392
O       9.65810      0.03552     15.18880         0.287129     -0.466524     -0.996420
O       9.69596      3.89666      6.61670        -0.080640     -0.085328     -0.124069
O       9.84705      0.00784      6.82118        -0.184778      0.109701     -0.677457
O       9.85286      3.75639     10.91022        -0.226161      1.309190      0.642638
O       9.79734     15.56501     10.80348        -0.072727     -0.740236     -0.217022
O       9.63753      7.89081      2.61574         0.287886     -0.630584     -0.539491
O       9.64685      7.69073     15.16587         0.085786      0.922797     -0.591540
O       9.71822      7.70850      6.66692         0.275360      0.969885     -0.138946
O       9.66014      7.81134     10.82542         0.537134     -0.075240     -0.333734
O       9.83355     11.68391      2.48606        -0.458940     -0.146089     -0.136194
O       9.81214     11.72267     15.00668        -0.070756     -0.105815      0.026202
O       9.69123     11.74539      6.54525        -0.126737     -0.821592      0.482549
O       9.76640     11.71739     10.73517         0.055440     -0.390128      0.038091
