  # total energy = -7883.10181564 
CRSYTAL
PRIMVEC
    15.6080000000000005    0.0000000000000000    0.0000000000000000
     0.0000000000000000   15.6080000000000005    0.0000000000000000
     0.0000000000000000    0.0000000000000000   16.6239999999999988
PRESSURE
-1.49363 -1.61168 -1.97343 -0.31 0.325981 -0.052183
PRIMCOORD
320 1
Pb       3.99954      3.85888      4.11288        -0.291229      0.492978     -0.119936
Pb       4.08044      4.02319      0.13378        -0.210182      0.035379     -0.395305
Pb       3.90883      0.02494      3.97116        -0.178509     -0.549274      0.231126
Pb       3.79366     15.57140     16.58280         0.393546      0.005783     -0.074033
Pb       0.06759      3.83508      4.16352         0.187538      0.279675     -0.185688
Pb      15.54821      3.78478     16.59952         0.182381      0.118776      0.192750
Pb      15.55671     15.49201      3.99729         0.273805      0.291561      0.461423
Pb      15.56109     15.57498     16.57459        -0.485911      0.199718     -0.182189
Pb       3.67612      3.73371      8.30157         0.525492      0.420292      0.035569
Pb       3.85482      0.03309      8.18648        -0.052678      0.013690      0.306018
Pb      15.46859      3.80772      8.28860         0.558122     -0.170755     -0.051157
Pb       0.01708     15.56340      8.21968         0.325196      0.277637     -0.220130
Pb       3.79503      3.89444     12.48866         0.367920      0.081349     -0.587983
Pb       3.83690     15.46148     12.46257         0.274055      0.776810     -0.411340
Pb       0.06618      3.94681     12.51888        -0.249802     -0.123432     -0.428411
Pb       0.03838      0.24032     12.69855         0.009494     -0.424622     -0.643022
Pb       3.80377      7.89992      4.15931         0.044003     -0.530672     -0.168159
Pb       3.85448      7.75383     16.54654         0.137770     -0.263188     -0.269080
Pb       0.08784      7.88685      4.22969        -0.251147     -0.339451     -0.502646
Pb       0.00095      7.75444     16.56942        -0.080206     -0.010136     -0.268240
Pb       3.88899      7.68751      8.27267         0.099766     -0.184699      0.099504
Pb      15.29433      7.71487      8.62078         0.600405      0.010740     -0.563802
Pb       3.93710      7.83338     12.40709        -0.083373     -0.706672     -0.448251
Pb      15.52250      7.92460     12.58553         0.466622     -0.195781     -0.258776
Pb       3.81457     11.70575      4.02311         0.247870      0.152378      0.404040
Pb       3.84671     11.70842     16.53173         0.141707     -0.030420      0.134438
Pb      15.54202     11.66492      4.02490        -0.150267     -0.151640      0.156185
Pb      15.54984     11.79793     16.56855        -0.067153     -0.450388     -0.166052
Pb       3.82292     11.74389      8.15137         0.598344     -0.400257      0.383261
Pb      15.60299     11.62910      8.26047         0.009811      0.303228      0.008492
Pb       3.96716     11.62853     12.32238        -0.165954      0.304354     -0.281098
Pb       0.17520     11.63550     12.40440        -0.151186      0.269452     -0.349031
Pb       7.79306      3.66797      4.18355         0.110372      0.577305      0.068512
Pb       7.79972      4.00668      0.00024         0.018317      0.142743     -0.031155
Pb       7.70608     15.47726      4.07212         0.444209      0.112689      0.077070
Pb       7.84205      0.17359      0.06914         0.299526     -0.097131     -0.319549
Pb       7.62970      3.89479      8.39723         0.152936     -0.005204     -0.518304
Pb       7.88734     15.59758      8.26835        -0.255600     -0.176553     -0.467901
Pb       7.74558      3.70684     12.42473        -0.156147      0.315486     -0.345383
Pb       7.66252     15.54423     12.51265         0.104715      0.117388     -0.712087
Pb       7.77091      7.84021      4.18283         0.204659      0.173546     -0.100412
Pb       7.66187      7.87951     16.58734         0.341244     -0.501175     -0.459211
Pb       7.83815      7.72361      8.20652        -0.378222     -0.120334      0.316502
Pb       7.75478      7.65412     12.44241        -0.022698      0.034001     -0.778836
Pb       7.92975     11.74646      4.25971        -0.355191     -0.386661     -0.472553
Pb       7.62432     11.76726     16.57711         0.462873     -0.106501     -0.220435
Pb       7.72534     11.75355      8.19871        -0.057137      0.109415     -0.041824
Pb       7.74161     11.54523     12.39388        -0.298811      0.438348     -0.123446
Pb      11.87847      3.81157      4.37132        -0.238859      0.234759     -0.881123
Pb      11.78035      4.07210      0.20439        -0.499265     -0.285588     -0.294514
Pb      11.57775     15.43425      4.15716        -0.024414      0.266286     -0.400739
Pb      11.58107     15.50859      0.00314         0.242221      0.502371     -0.390038
Pb      11.73669      4.13512      8.48468         0.231191     -0.419763     -0.647290
Pb      11.66809      0.17348      8.33437        -0.150816     -0.240345     -0.376547
Pb      11.80078      3.82610     12.60439        -0.027280     -0.101427     -0.816106
Pb      11.65635      0.01420     12.43126        -0.106264      0.021157      0.087362
Pb      11.77698      7.69909      4.18349        -0.088495     -0.008856     -0.352241
Pb      11.52838      7.81933      0.01878         0.082576     -0.612361     -0.261452
Pb      11.61651      7.85852      8.33569         0.252684     -0.209601     -0.086265
Pb      11.44927      8.01235     12.66309         0.324988     -0.486054     -0.640072
Pb      11.81023     11.32234      4.23261        -0.085149      0.675360     -0.091147
Pb      11.69412     11.71664     16.52193        -0.390043      0.385120     -0.139439
Pb      11.93086     11.95322      8.53700        -0.335160     -0.486357     -0.316121
Pb      11.56158     11.87146     12.39200         0.304120     -0.347060      0.317308
Ti       1.94604      1.97426      2.10840        -0.296243      0.127455      0.606322
Ti       1.96389      1.96366     14.76541         0.369848      0.045754     -0.553630
Ti       1.89112     13.63393      2.10614         0.735513      0.252292      0.424573
Ti       1.94759     13.57860     14.68413         0.253661      0.487914     -0.381041
Ti      13.63924      1.88355      2.15085        -0.518044     -0.040257     -0.126055
Ti      13.51895      1.95553     14.68958        -0.569619     -1.333030      0.688495
Ti      13.58432     13.63211      2.18420        -0.508334     -0.304603     -0.465004
Ti      13.64257     13.61529     14.56613        -1.341714      1.338576      0.060318
Ti       1.99439      1.92137      6.15696        -1.314495      0.084602      0.856171
Ti       1.96001     13.60661      6.35274        -0.537233      0.568949     -1.166326
Ti      13.64428      1.89531      6.29556         0.734363     -0.046345     -0.026863
Ti      13.64419     13.64939      6.31906         0.156192     -0.562449     -0.382662
Ti       1.95069      1.92111     10.55071         0.821062     -0.389332     -1.033324
Ti       1.92851     13.72596     10.54195         0.018062     -0.513610      0.168931
Ti      13.69947      1.82790     10.56222        -0.036917      1.072235      0.103404
Ti      13.80204     13.65639     10.58836         0.110497     -0.275743      0.765089
Ti       1.91631      5.83604      2.23944         0.002732      0.045448      0.563348
Ti       1.99972      5.74732     14.74435         0.722659      0.285189     -0.944805
Ti      13.63626      5.78643      2.18413         0.323665      0.555777      0.374208
Ti      13.70245      5.80660     14.66308        -0.472796      0.721841      0.879269
Ti       2.00926      5.82310      6.35899        -0.171071     -0.591034     -1.085722
Ti      13.81503      5.77161      6.36280        -0.457963      0.262910     -0.074954
Ti       1.88301      5.78581     10.42522         1.966848      0.478161      0.385059
Ti      13.63891      5.81642     10.64227        -0.177653     -0.840064     -1.221926
Ti       1.92686      9.73252      2.10481        -0.322939     -0.447253     -0.391042
Ti       1.94749      9.71844     14.68734        -0.393761     -0.570764      0.140172
Ti      13.61990      9.65301      2.01498         0.367709     -0.106589      0.455980
Ti      13.62014      9.79117     14.57683         0.286304     -1.601559      0.940511
Ti       1.93528      9.70209      6.31883         0.030420     -0.100450      0.144176
Ti      13.65878      9.69095      6.48663         0.013102      0.205420      0.162712
Ti       1.97163      9.66078     10.48230         0.292386     -0.090365     -0.768811
Ti      13.63664      9.74550     10.55123        -0.220592      0.726932     -0.345275
Ti       5.85338      1.90040      2.17468         0.046424      0.364313     -0.487509
Ti       5.78689      1.95349     14.76513         0.313243      0.020893     -1.273893
Ti       5.77691     13.61588      2.05008         0.285477      0.178515      0.929753
Ti       5.80491     13.67264     14.56032         0.385340      0.102368      0.823853
Ti       5.82681      1.92208      6.33812         0.752438      0.000967      0.484544
Ti       5.80885     13.69421      6.22032         0.708444     -0.598142      0.985163
Ti       5.86077      1.89056     10.47600        -0.853369      0.291701      0.334171
Ti       5.85456     13.68493     10.39930         0.090383     -0.261506      0.746490
Ti       5.84536      5.89492      2.25440        -0.021922     -0.770536     -0.658940
Ti       5.89564      5.85265     14.51493        -0.412292     -0.062605      1.592824
Ti       5.89675      5.76669      6.36071        -0.552958      0.006031      0.322275
Ti       5.85122      5.75616     10.39864        -0.290831      0.655646      0.091978
Ti       5.80108      9.78420      2.13419         0.755627     -0.004944      0.591233
Ti       5.79419      9.81355     14.61695         0.670963     -0.904480      0.530189
Ti       5.82342      9.72793      6.32982         0.151646      0.372826      0.192866
Ti       5.82500      9.71003     10.33613         0.193779     -0.354648      0.460401
Ti       9.73482      1.90034      2.29040         0.727232     -0.356707     -1.323592
Ti       9.65032      1.93235     14.54282         1.491282     -0.489148      1.924071
Ti       9.69984     13.53885      2.11559         0.231438      0.586798      0.539405
Ti       9.68415     13.63235     14.61802         0.343753      0.335710      0.165296
Ti       9.73070      1.94958      6.37371        -0.450021     -0.317557     -0.130042
Ti       9.79304     13.54441      6.32251        -0.090716      0.666031      0.448729
Ti       9.81296      2.01686     10.42614        -0.443692     -0.904073      0.441309
Ti       9.77176     13.65017     10.48698        -0.726795      0.753149      0.039133
Ti       9.67595      5.78338      2.32456         0.695464      0.140282     -0.743604
Ti       9.78504      5.74956     14.57964        -0.551227      0.922299     -0.173315
Ti       9.81593      5.77499      6.33784        -0.418627     -0.329477     -0.265623
Ti       9.83014      5.83828     10.49823        -1.303847      0.354640      0.429400
Ti       9.75660      9.73168      2.17395        -0.673277     -0.361943      0.325899
Ti       9.71532      9.72209     14.68956        -0.674604      0.340899     -0.355811
Ti       9.74479      9.71614      6.41744         0.127661     -0.265570     -0.191534
Ti       9.70099      9.80340     10.45773        -0.109317     -0.653024      0.114999
O       1.93983      1.99460      0.34967        -0.035954     -0.462585     -0.437127
O       2.01502      1.94881     12.91127        -0.297809      0.245020      0.620419
O       1.97004     13.60051      0.32954        -0.407408     -0.088226     -0.416307
O       2.09687     13.48807     12.91645        -0.367003      0.291569      0.264010
O      13.59362      1.81972      0.31893        -0.096269      0.274720      0.785092
O      13.58875      1.89791     12.89251         0.325674      0.293913     -0.522648
O      13.65999     13.68509      0.37587         0.421919     -0.677560      0.216569
O      13.43699     13.55222     12.78543         0.360486      0.130203      0.899078
O       1.96533      2.02535      4.37867        -0.095345     -0.327642     -0.175877
O       2.01423     13.59936      4.54632        -0.305963     -0.028151      0.488256
O      13.73567      1.92278      4.50632        -0.410420      0.288496     -0.058016
O      13.63238     13.51407      4.49782         0.021837      0.263992      0.484966
O       2.00903      1.74785      8.71494         0.082865      0.299701      0.751227
O       1.76938     13.70232      8.76889         0.331820     -0.005438     -0.340955
O      13.77453      1.91249      8.77536        -0.252901     -0.322675      0.034846
O      13.80649     13.61166      8.80725        -0.067243      0.229969     -0.603165
O       2.07270      5.84855      0.45821         0.089497      0.348476     -0.688037
O       2.02357      5.64038     12.91260        -0.343651     -0.139033      0.263795
O      13.56174      5.76816      0.35031         0.086066     -0.134423      0.530569
O      13.77342      5.71350     12.88600         0.143581      0.247488     -0.999948
O       1.88939      5.81162      4.47452         0.147358     -0.256241      0.830257
O      13.76176      5.73611      4.53855        -0.097039     -0.038625      0.505611
O       1.96645      5.89171      8.65630         0.046901     -0.050698     -0.319780
O      13.66795      5.74109      8.68464         0.412240     -0.144497      1.274830
O       1.98858      9.57962      0.29842        -0.250582      0.298797      0.640871
O       1.94240      9.77909     12.91034        -0.067848     -0.213136     -0.334949
O      13.49950      9.61233      0.24461         0.320375      0.369581      0.210770
O      13.69685      9.57413     12.78386        -0.154640      0.115060     -0.521566
O       1.88615      9.74935      4.48927         0.124255     -0.004098      0.449437
O      13.60724      9.67402      4.69545         0.090961     -0.015581     -0.238995
O       2.12677      9.46011      8.68776        -0.559632      0.846956      0.132127
O      13.73910      9.69347      8.70936         0.072164      0.004121      0.460010
O       5.87211      1.88402      0.36285         0.259250     -0.064337      0.184446
O       6.00956      1.93607     12.89607        -0.116451      0.036960      1.043622
O       5.84940     13.68486      0.26576        -0.032991     -0.340489      0.711381
O       5.72888     13.67022     12.78219         0.297100     -0.126807     -0.027961
O       5.90015      1.99002      4.55444        -0.345716     -0.130279     -0.864536
O       5.74290     13.69086      4.46843         0.135692     -0.287838     -0.548619
O       5.73929      2.00599      8.69369         0.203755     -0.449435     -0.200010
O       5.92290     13.56833      8.66632        -0.109311      0.369199     -0.526386
O       5.81917      5.71496      0.37601         0.171899      0.773778      1.304999
O       5.88927      5.92541     12.76301         0.204959     -0.435033     -0.422202
O       5.95029      5.76821      4.55126        -0.090899     -0.053140     -0.024992
O       5.86791      5.85177      8.57140         0.096749     -0.458694      0.749319
O       5.95156      9.66730      0.34543        -0.653453      0.132671      0.338030
O       5.86503      9.85077     12.86223        -0.144896     -0.267393     -0.480165
O       5.89645      9.76554      4.55921        -0.151423     -0.242751     -0.727915
O       5.81433      9.79820      8.57199        -0.031226     -0.023199      0.231985
O       9.71468      1.86030      0.43421         0.082700      0.270059      1.161027
O       9.67700      1.86117     12.81008        -0.013476     -0.096144     -1.316561
O       9.62016     13.39928      0.35451         0.261325      0.335383     -0.366931
O       9.88617     13.76913     12.83002        -0.017106     -0.337398     -0.117551
O       9.51708      1.64363      4.59044         0.768563      0.926858      0.167585
O       9.88516     13.57781      4.51908        -0.421987      0.163349      0.584611
O       9.75034      1.89382      8.63997         0.225690      0.321168     -0.113635
O       9.73277     13.42303      8.71611        -0.014085      0.179289     -0.449032
O       9.90264      5.77197      0.44786        -0.005232     -0.511396      0.421633
O       9.63262      5.98805     12.75877         0.694277     -0.087407      1.045372
O       9.65404      5.77688      4.51671         0.480592      0.423821      0.868658
O       9.86007      5.69463      8.70165         0.192549      0.267334      0.033276
O       9.71685      9.79026      0.37422         0.400663     -0.079778      0.413328
O       9.78196      9.58050     12.85332        -0.447927      0.232333      0.285140
O       9.79835      9.53057      4.60753         0.073648      0.480417     -0.011341
O       9.67200      9.88408      8.69592         0.281334     -0.289430     -0.057602
O       3.90309      1.81944      2.37542        -0.405417      0.201141      0.179217
O       3.94219      1.85278     15.03953        -0.113430     -0.299564     -0.157570
O       3.86642     13.81737      2.43923        -0.220393     -0.485282     -0.371050
O       3.88538     13.59116     14.96232        -0.335572      0.047678      0.133569
O      15.50886      2.02151      2.33434         0.885449     -0.093695      0.295781
O       0.02861      1.84642     14.97547         0.089027      0.541064     -0.079775
O       0.02235     13.53152      2.47719        -0.168752     -0.161259     -0.042971
O      15.53136     13.68344     14.90669         0.526178     -0.775586     -0.035865
O       3.88379      1.91543      6.48665         0.179178     -0.275073      0.385211
O       3.93665     13.55925      6.62611        -1.087298      0.290404      0.260034
O       0.04058      1.91380      6.51524        -0.020713     -0.323307      0.295361
O      15.57108     13.66652      6.66166         0.290267      0.002738     -0.341125
O       3.96075      1.85929     10.87822        -0.313446      0.296812      0.025066
O       3.86068     13.75795     10.69596         0.235035     -0.384215      0.143371
O       0.04743      1.88918     10.86739        -0.289114      0.281311      0.341073
O       0.06222     13.67896     11.11105        -0.283169     -0.009642     -0.448607
O       3.90221      5.90916      2.55533         0.521809     -0.025893     -0.008782
O       3.97175      5.86337     14.90925        -0.199378      0.218883      0.366109
O      15.60379      5.73497      2.44294        -0.634625      0.056887     -0.186726
O       0.14432      5.72106     15.06775        -1.244072     -0.339672     -0.106426
O       3.92505      5.63394      6.65989         0.162163      0.554157     -0.319534
O       0.09388      5.70375      6.65133        -0.550443      0.221789      0.047366
O       3.97005      5.73417     10.75171        -0.514714      0.134941      0.164575
O       0.10057      5.57568     10.75859        -1.136844      0.804792      0.260379
O       3.84751      9.65763      2.43012         0.559186     -0.296964      0.096293
O       3.89831      9.75417     14.92443        -0.269780     -0.301531      0.122151
O      15.54907      9.76106      2.38846         0.536424      0.022510     -0.052177
O      15.52496      9.76540     14.92675         0.640623     -0.216088      0.099931
O       3.91724      9.92483      6.49958        -0.596155     -0.459246      0.178286
O       0.04751      9.73108      6.60007         0.300400     -0.276510      0.280987
O       3.92178      9.68759     10.83958         0.255863      0.375376     -0.013061
O       0.07832      9.64710     10.76627        -0.546318     -0.024244      0.376755
O       7.76198      1.84899      2.51831        -0.387369      0.129206     -0.154465
O       7.86396      1.95544     15.11530        -1.046768      0.052736     -0.537404
O       7.76351     13.54414      2.47454        -0.256001     -0.477116     -0.025925
O       7.78739     13.52944     14.82201        -0.229060      0.073081     -0.098972
O       7.73936      1.92863      6.65748         0.796618     -0.025033      0.387744
O       7.76200     13.74509      6.59944         1.381249     -0.550098     -0.233361
O       7.84374      1.93456     10.76677         0.406033     -0.076983     -0.090662
O       7.85774     13.76447     10.80836        -0.773729     -0.414684      0.050460
O       7.85382      5.69533      2.39849        -1.145645      0.094265      0.132640
O       7.78396      5.79538     14.97992         0.714665     -0.136458     -0.135147
O       7.86504      5.71089      6.75659        -0.334112      0.879436     -0.341399
O       7.81726      5.85250     10.67509         0.668614     -0.113380      0.180764
O       7.70189      9.86363      2.48028         0.957212     -0.122295      0.145790
O       7.79847      9.80894     14.93314         0.102618      0.025532      0.031871
O       7.84486      9.57104      6.59360        -0.323788      0.282826      0.102853
O       7.76739      9.76664     10.74533        -0.319777     -0.158863      0.137641
O      11.62578      1.66141      2.65168         0.560334      0.748368     -0.323707
O      11.63471      1.87373     14.84490         0.215847      0.569347      0.011633
O      11.71052     13.77999      2.24571        -0.217670     -0.479379      0.512103
O      11.67611     13.68744     15.06064         0.492206     -0.689162     -0.141922
O      11.74033      2.03341      6.60993        -0.492981     -0.519856     -0.109578
O      11.72741     13.51264      6.75117        -0.282530      0.392251     -0.227062
O      11.73516      1.91612     10.73956         0.330322     -0.289923      0.270133
O      11.74791     13.47346     10.62969        -0.012866      0.023833      0.391125
O      11.76320      5.83898      2.67069        -0.361540     -0.215088     -0.348285
O      11.73590      5.88496     14.89998        -0.211624     -0.267951     -0.273631
O      11.80917      5.76036      6.63850        -0.734727      0.027621     -0.285739
O      11.79262      5.83492     10.74491        -0.038550     -0.022918      0.391648
O      11.72435      9.66045      2.56523        -0.472983     -0.281659     -0.476320
O      11.66844      9.54320     14.85506         0.493238      0.176129      0.030783
O      11.73666      9.71384      6.77187        -0.066239     -0.099428     -0.219105
O      11.69423      9.85853     10.71086         0.629320     -0.412296      0.255679
O       1.95902      3.91538      2.40950         0.300691     -0.852261      0.171936
O       2.20429      3.82436     15.05274        -0.915011      0.116620     -0.207679
O       1.79646     15.58604      2.36873         0.149670      0.253996      0.127058
O       1.93043     15.54790     15.02042         0.176748     -0.235117     -0.237995
O      13.44626      3.80468      2.36305         0.059109      0.084517      0.147467
O      13.69309      3.83032     14.98465        -0.099064      0.484915      0.040709
O      13.78912     15.52059      2.51361        -0.244635      0.128959     -0.164686
O      13.59009     15.59535     14.92773         0.474271     -0.819654     -0.255262
O       1.99852      3.81070      6.61927        -0.250996     -0.508567     -0.095510
O       1.96398     15.55813      6.68589         0.211444     -0.148012     -0.585966
O      13.76128      3.80877      6.67988        -0.289379      0.556117     -0.312491
O      13.56906     15.58456      6.56981         0.126227     -0.408148      0.267168
O       2.10089      3.81899     10.58600        -0.263019      0.268082      0.760189
O       1.93151      0.01296     10.94812         0.003563     -0.566133      0.119702
O      13.68395      3.84916     10.89041        -0.117481     -0.122547      0.091536
O      13.72742     15.53777     10.97915        -0.291126      0.556272     -0.482928
O       1.86310      7.84297      2.55194         0.076472     -0.307694     -0.020933
O       1.92176      7.73263     14.90352         0.091777      0.456550      0.221101
O      13.66260      7.74865      2.44665         0.110182      0.062580      0.076492
O      13.84492      7.66461     14.93178        -0.169118      0.284993     -0.370253
O       2.12949      7.67269      6.40319        -0.053226      1.731708      0.288553
O      13.77871      7.70487      6.79874        -0.346763      0.348913     -0.486707
O       2.05145      7.75434     10.89051        -0.406946     -0.575002      0.046132
O      13.80054      7.73681     10.62571         0.157703      0.050132      0.710438
O       2.08249     11.69410      2.37008        -0.530909     -0.300735     -0.047289
O       1.90989     11.61242     15.08949        -0.211689      0.944702     -0.198687
O      13.65908     11.56932      2.46493        -0.445111      0.673154     -0.119143
O      13.58176     11.60013     14.86452        -0.094862      1.318016      0.236416
O       1.91051     11.67195      6.68712        -0.010496      0.088805      0.044944
O      13.73743     11.69859      6.72016        -0.118964     -0.335415      0.057946
O       1.92962     11.66348     10.79253         0.222764     -0.093851     -0.085406
O      13.87129     11.67786     10.73330        -0.323897     -0.847507      0.238324
O       5.74903      3.84722      2.39270         0.203259     -0.344150      0.465250
O       5.78844      3.89506     14.94882         0.381158     -0.541659     -0.078883
O       5.83795     15.53803      2.50506         0.250671      0.473809     -0.328714
O       5.86342     15.54027     14.88834         0.159917      0.298295      0.046693
O       5.88710      3.85721      6.68465        -0.001300     -0.090999     -0.312850
O       5.90387     15.57395      6.58479        -0.683284      0.671489      0.236378
O       5.98327      3.87442     10.75724        -0.169142     -0.339613      0.077546
O       5.80655     15.60246     10.74452         0.644909     -0.280784      0.245359
O       5.99804      7.72103      2.55489        -0.440693      0.919764     -0.467502
O       5.94587      7.76691     14.84268        -0.211530      0.579476      0.343815
O       5.75428      7.80830      6.69192         0.319271     -0.580276     -0.609584
O       5.79251      7.74275     10.64548         0.206257      1.059111      0.301461
O       5.57984     11.70117      2.39986         0.540501     -0.097418     -0.483996
O       5.78183     11.67732     14.98964         0.068550      0.395622     -0.082968
O       5.96670     11.74958      6.55795        -0.000214     -0.593415      0.059691
O       5.80122     11.72697     10.70940         0.210933     -0.372181      0.248039
O       9.72961      3.80007      2.56384         0.479601     -0.197490      0.111028
O       9.76552      3.91000     14.64653        -0.023815     -0.125854      0.578996
O       9.65803     15.48969      2.41825        -0.251769     -0.579322      0.167257
O       9.78792     15.58571     14.95656        -0.763088     -0.318730      0.116240
O       9.74991      3.86929      6.57141         0.181484     -0.363366     -0.173999
O       9.78524     15.57051      6.71846         0.430146     -0.349225      0.239350
O       9.98630      3.89066     10.81657        -0.700578     -0.229642      0.059035
O       9.88483     15.57086     10.64395         0.125925      0.028074      0.059382
O       9.68401      7.74319      2.48308         0.089374      0.676450     -0.047307
O       9.68437      7.77629     15.08398         0.082369      0.016034     -0.461932
O       9.79941      7.72554      6.80709         0.170358     -0.233605     -0.303255
O       9.79146      7.77202     10.71817         0.226105      0.602733     -0.105161
O       9.86190     11.62758      2.57228        -0.229869     -0.154154      0.040935
O       9.86941     11.70697     14.79096         0.061671     -0.855566      0.208536
O       9.63645     11.62102      6.44882        -0.061853      0.611939      0.154546
O       9.63259     11.66246     11.01339         0.490523      0.283886     -0.574525
