  # total energy = -7875.26424623 
CRSYTAL
PRIMVEC
    15.6080000000000005    0.0000000000000000    0.0000000000000000
     0.0000000000000000   15.6080000000000005    0.0000000000000000
     0.0000000000000000    0.0000000000000000   16.6239999999999988
PRESSURE
-0.043529 -0.547614 -0.707399 -0.26875 0.138878 -0.05319
PRIMCOORD
320 1
Pb       4.02768      3.94769      4.11623        -0.706015     -0.635287      0.585099
Pb       4.09651      4.06303      0.16651        -0.003629      0.048342     -0.433877
Pb       3.88370      0.03642      3.97380         0.251124     -0.220316      0.695570
Pb       3.75872     15.57292     16.59773         0.665491      0.010620      0.050474
Pb       0.09867      3.82351      4.20244        -0.320057      0.623714     -0.691347
Pb      15.51672      3.79750     16.59407        -0.458057     -0.197037      0.320138
Pb      15.56816     15.51887      4.01479        -0.489139      0.001619     -0.407430
Pb      15.51857     15.56705     16.55743        -0.156244      0.206275      0.076709
Pb       3.62916      3.73093      8.34693         0.274048      0.113604     -0.642271
Pb       3.88113      0.07109      8.24333        -0.257916     -0.210594     -0.287209
Pb      15.50560      3.78450      8.30097         0.208508      0.140664     -0.521953
Pb       0.10386     15.57881      8.21871        -0.278558      0.016378      0.233539
Pb       3.86262      3.92372     12.43989        -0.055495     -0.371157      0.079499
Pb       3.83330     15.41871     12.36254         0.160218      0.439388      0.030856
Pb       0.00913      3.85342     12.46905         0.765911      0.094098      0.616363
Pb      15.60678      0.29897     12.67649        -0.084919     -0.430307     -0.409262
Pb       3.78816      7.88977      4.26270         0.366760     -0.244914     -0.459566
Pb       3.82373      7.74309     16.57949         0.284235      0.021625      0.196998
Pb       0.20183      7.90806      4.26913        -0.835544     -0.450008     -0.583178
Pb       0.04083      7.74021     16.60786        -0.744162      0.085398     -0.028964
Pb       3.98030      7.65315      8.20943         0.354167      0.512271     -0.614349
Pb      15.32182      7.72966      8.64164         0.508583     -0.140926     -0.871222
Pb       3.92501      7.87271     12.41175         0.348342     -0.114013      0.398789
Pb      15.55748      7.98820     12.61930         0.002110     -0.827900     -0.436794
Pb       3.81485     11.68132      4.05981         0.058312      0.362958     -0.486584
Pb       3.88993     11.66172     16.47017        -0.132210     -0.106334      0.860848
Pb      15.56313     11.67683      4.04089         0.181894     -0.280932     -0.311995
Pb      15.54198     11.84986     16.56710         0.023592     -0.998517      0.149633
Pb       3.84150     11.66763      8.05640        -0.569749      0.878594      0.925529
Pb      15.58808     11.60447      8.29712         0.324774      0.250727      0.230472
Pb       4.02737     11.65094     12.28098        -0.205475      0.093571      0.295448
Pb       0.23200     11.56759     12.33536        -0.665910      0.449036      0.147858
Pb       7.83116      3.67469      4.20498         0.144171      0.267793     -0.637176
Pb       7.82067      4.00057      0.08289         0.451036      0.048197     -0.582528
Pb       7.73432     15.42404      4.00728        -0.147405      0.451287      0.480400
Pb       7.88550      0.18770      0.11896         0.066015      0.306200     -0.379337
Pb       7.56091      3.95023      8.37288         0.712674     -0.196459      0.732565
Pb       7.90576     15.53312      8.30295        -0.960463      0.542739      0.367465
Pb       7.66924      3.72492     12.42940         0.480754      0.194716     -0.200633
Pb       7.63810     15.55114     12.56210         0.105306      0.377531     -0.606784
Pb       7.71295      7.85371      4.16453         0.370077     -0.203772      0.268980
Pb       7.73984      7.98951     16.57167         0.071351     -1.066887      0.506972
Pb       7.83719      7.73651      8.23557        -0.274535      0.013798     -0.168729
Pb       7.79820      7.56911     12.39723        -0.238950      0.724459      0.177065
Pb       7.99549     11.72016      4.31072        -0.816114     -0.005993      0.036295
Pb       7.60176     11.71818     16.59950         0.784295      0.427142      0.275466
Pb       7.63149     11.75425      8.11514         0.901845     -0.193842      0.603250
Pb       7.68825     11.46869     12.39060         0.548912      0.588183      0.193634
Pb      11.86089      3.86611      4.41707        -0.565681     -0.090651     -0.815396
Pb      11.81927      4.09054      0.18718        -0.448492     -0.159605     -0.163202
Pb      11.54139     15.44273      4.18947         0.108619      0.291404     -0.736884
Pb      11.57073     15.49098      0.05996        -0.508101      0.675076      0.264312
Pb      11.74820      4.16145      8.46135         0.214574     -0.802367     -0.159027
Pb      11.62423      0.16218      8.28289         0.821182      0.119768      0.566542
Pb      11.83368      3.81374     12.66315        -0.324111      0.128591     -0.503227
Pb      11.78532     15.55771     12.44129        -0.317148      0.627142     -0.707213
Pb      11.76114      7.54187      4.09517        -0.239009      0.270895      0.237889
Pb      11.43585      7.79123      0.02919         0.493679      0.187493      0.073041
Pb      11.55306      7.92950      8.29310         0.110846     -0.559334     -0.407802
Pb      11.44091      7.96529     12.70512         0.434580      0.033219     -0.275315
Pb      11.71150     11.26154      4.27973         0.161173      0.591019     -0.646529
Pb      11.78638     11.78444     16.50965        -0.836708     -1.010588      0.132066
Pb      12.01880     11.98376      8.50971        -0.267208      0.032097     -0.250719
Pb      11.57750     11.91944     12.38898        -0.180660     -0.687878      0.251926
Ti       1.79807      1.84112      2.09379         0.799173      1.246038      1.153698
Ti       1.99866      1.84101     14.86119        -0.897983      1.468460     -1.415581
Ti       1.89463     13.62173      2.12748         0.029013     -1.058432      0.213538
Ti       1.94884     13.56151     14.69626        -0.416582      0.212278     -0.455834
Ti      13.47171      1.89216      2.10143         0.060434      0.594590      0.375122
Ti      13.40522      1.88413     14.86348         1.396692      1.449753     -0.442988
Ti      13.50529     13.52682      2.13420        -0.150567      0.275296      1.392259
Ti      13.56616     13.68803     14.62829         0.826296     -0.335495     -0.070904
Ti       1.85155      2.03435      6.16330         1.180803     -0.276294      1.438856
Ti       1.89853     13.79023      6.18909         1.419178     -0.584018     -0.114453
Ti      13.68567      1.83500      6.20770        -0.625265      1.040788      0.296521
Ti      13.66741     13.65435      6.20908         0.216826      0.117479      0.066420
Ti       1.93011      1.91825     10.54520         0.722513     -0.561372     -1.591301
Ti       1.95373     13.53498     10.49848        -0.658093      1.394366     -0.807382
Ti      13.61351      1.90412     10.45065         0.139469     -1.263595      0.516919
Ti      13.77812     13.59236     10.65243         0.681319      1.272825     -0.742104
Ti       2.03267      5.71938      2.16189        -0.554880      0.007787      1.701760
Ti       1.87913      5.72897     14.85618         0.252061      0.072615     -0.397442
Ti      13.78858      5.87605      2.19783        -0.199379     -0.988823     -0.611490
Ti      13.59244      5.93576     14.58397        -0.187937     -0.405558      2.281334
Ti       1.93469      5.95722      6.27850        -0.301289     -1.565436     -0.442572
Ti      13.70088      5.78407      6.33422         0.541643     -0.231950      0.027934
Ti       2.22835      5.86830     10.31880        -2.067494     -0.311011      0.733084
Ti      13.80249      5.71995     10.62537         0.013909      0.697826     -0.862663
Ti       1.87127      9.61386      2.06441         0.175085      0.986806      0.665461
Ti       1.88303      9.67312     14.60239         0.752538     -0.077461      0.594157
Ti      13.63391      9.64090      2.09102         0.395201      0.541691     -0.976276
Ti      13.59916      9.78836     14.52945        -0.514714     -0.294562      1.527638
Ti       1.88066      9.83286      6.36789        -0.555892     -0.633181      0.601815
Ti      13.61842      9.68165      6.39465         0.609052     -0.427425     -0.188946
Ti       2.01730      9.61245     10.47863        -0.222166      0.524133     -1.304627
Ti      13.49851      9.67340     10.56959         0.360447      0.089901      0.487334
Ti       5.78570      1.90580      2.13258         0.770971      0.660583     -0.371687
Ti       5.86551      2.04335     14.66501         0.610944      0.136651     -0.446003
Ti       5.79292     13.70153      2.10375        -0.142834     -1.479883      0.603440
Ti       5.87857     13.76823     14.74984         0.579884     -0.035023     -0.659592
Ti       5.84035      1.99923      6.42247        -0.578156     -1.920965      0.114552
Ti       5.82570     13.78311      6.41278        -1.066387      0.312964     -1.599734
Ti       5.80119      1.83264     10.46373         0.698635      0.459032      1.477374
Ti       5.88996     13.60414     10.39638        -0.038597      1.223159     -0.333192
Ti       5.94730      5.87132      2.43531        -0.074991      0.143946     -1.425910
Ti       5.84374      5.96163     14.57890         0.506646     -1.327716      0.058129
Ti       5.85638      5.81135      6.32949        -0.454113      0.543188      0.736236
Ti       5.93118      5.84193     10.50562         0.254199     -0.814996     -0.943338
Ti       5.73072      9.80278      2.15076         0.085643     -0.060129      1.075910
Ti       5.75376      9.76212     14.69665         0.751967     -0.799233     -0.768673
Ti       5.78700      9.89582      6.30400         0.469814     -1.677503     -0.664092
Ti       5.88402      9.70557     10.42198         0.190028     -0.665380      0.255116
Ti       9.72141      1.90984      2.26999         0.530004      1.019621     -1.473172
Ti       9.69468      1.99808     14.56699        -0.726764      0.763335      1.238720
Ti       9.64145     13.55832      2.19612         1.113295      0.294397     -0.630152
Ti       9.68633     13.73128     14.58595        -0.435645     -1.027391      0.616746
Ti       9.73031      1.82343      6.32456         0.376709      1.366408     -0.746970
Ti       9.80051     13.63552      6.43971        -0.191489     -1.271423      0.106469
Ti       9.71239      1.93838     10.48108        -0.428260      0.412887      0.830995
Ti       9.71736     13.65366     10.40842        -0.323573      0.173149      0.901979
Ti       9.77136      5.82200      2.29533        -0.461759     -0.965233     -0.599715
Ti       9.71901      5.90751     14.46049        -0.461523     -1.748286      0.124653
Ti       9.76388      5.65510      6.36219         0.091826      1.564144     -1.038910
Ti       9.84852      5.87874     10.38312        -0.305027     -0.938556      1.397858
Ti       9.61566      9.70070      2.34128         1.098180     -0.246130     -1.411602
Ti       9.63644      9.81841     14.63510         1.162841      0.689358     -0.565057
Ti       9.69071      9.67581      6.40988        -0.103663      0.134323      0.331058
Ti       9.74476      9.75794     10.34961        -0.745335      0.365981      1.067500
O       1.96543      1.62271      0.34105        -0.091972      0.328116     -0.944771
O       1.79499      2.11929     13.00315         0.305832     -0.449403      0.493284
O       1.70189     13.62501      0.31030         0.554268      0.222265      0.290300
O       2.00886     13.73341     12.93795         0.235540     -0.780701     -0.149427
O      13.33234      1.87073      0.30585         0.529314     -0.098509      0.034722
O      13.67259      1.75670     13.04883        -0.356268      0.338638     -0.678781
O      13.75146     13.35343      0.37078        -0.688488      0.843891     -0.668397
O      13.61238     13.80384     12.83910        -0.398367     -0.502390      0.290023
O       1.85519      1.87568      4.40059         0.093409      0.279039     -0.396137
O       2.02522     13.56263      4.37728        -0.119969      0.251324      0.688610
O      13.67998      2.13127      4.40065         0.132396     -0.916102      0.364185
O      13.48972     13.71226      4.44044         0.274131     -0.366698      0.340762
O       1.85898      1.98648      8.63223         0.148844     -0.058871      1.761398
O       1.74986     13.53526      8.73072         0.205835      0.410280     -0.274706
O      13.70860      1.93388      8.67821         0.009137      0.026400     -0.040568
O      13.86058     13.56801      8.84745        -0.415321     -0.114167     -0.810520
O       2.14364      5.84863      0.41029         0.009393      0.392388     -0.595801
O       1.75650      5.54414     13.12443         0.544647      0.419609     -0.881965
O      13.41304      6.01975      0.40975         0.494460      0.059660      0.319127
O      13.75351      5.77119     12.85576        -0.043783     -0.368448     -1.579602
O       1.90028      5.66888      4.44775        -0.288217      0.719802      0.757078
O      13.78408      5.59619      4.51095        -0.297177      0.530746     -0.070715
O       2.22826      6.02396      8.54421        -0.279791     -0.605840      0.594254
O      13.72152      5.59299      8.71839        -0.226262      0.661068      1.253389
O       1.93732      9.63184      0.30680         0.134611     -0.124990     -0.261640
O       2.15713      9.63629     12.80610        -0.390709      0.253244      0.017183
O      13.83504      9.76343      0.28974        -0.579690     -0.464224      0.467093
O      13.62384      9.73002     12.76522         0.306946      0.045930     -1.158618
O       1.86071      9.77805      4.55768        -0.073739      0.016300      0.183574
O      13.81379      9.68588      4.62095        -0.513251      0.355077      0.189533
O       1.79826      9.73556      8.65814         0.852559     -0.311985      0.683586
O      13.54548      9.51726      8.71986        -0.039822      0.442810      0.478249
O       5.97190      2.02997      0.31603        -0.583409     -0.146211      0.459031
O       5.96044      1.97305     12.75482        -0.168553      0.014318      1.574534
O       5.90717     13.66327      0.36687         0.177339      0.320101     -1.366573
O       5.90671     13.66044     12.94688        -0.463731     -0.021764      0.304029
O       5.77782      1.84583      4.67440         0.316910      0.086773     -0.797350
O       5.77269     13.70009      4.57465        -0.076618      0.042900     -0.366574
O       5.83895      1.74608      8.72731        -0.327890      0.475003     -1.071265
O       5.82252     13.81680      8.60313         0.166361     -0.900878      1.032845
O       5.93821      5.77440      0.60758        -0.256314     -0.286408     -0.011129
O       5.93183      5.76114     12.81595        -0.247380      0.269649     -0.953498
O       5.99405      5.59088      4.58886        -0.297441      0.357404     -0.821891
O       5.77101      5.74622      8.66137         0.101374      0.641318      0.108535
O       5.63936      9.62468      0.38861         0.920736      0.106754     -0.509143
O       5.86790      9.71440     12.88034        -0.039448      0.456201     -0.233515
O       5.79565      9.82342      4.49899         0.155332      0.332002      0.674461
O       5.76446      9.67576      8.68384         0.184177      0.254759     -0.723644
O       9.69756      2.00236      0.38253        -0.364836     -0.464778      0.580365
O       9.62637      1.74298     12.82850         0.365584      0.156698     -0.924367
O       9.75189     13.48350      0.44835        -0.457714      0.022167     -0.864459
O       9.81250     13.62799     12.81611         0.062652      0.387134     -0.619551
O       9.87776      1.83617      4.49674        -0.861419     -0.784554      1.171762
O       9.67063     13.87035      4.68189         0.365401     -0.486047     -0.677295
O       9.98926      1.99682      8.72835        -0.206484     -0.271190     -1.214437
O       9.77191     13.52251      8.64808         0.007351      0.039796     -1.155006
O       9.65699      5.82457      0.40747         0.350854      0.221916      0.920281
O       9.91604      6.17346     12.60924        -0.853847     -0.883338      0.991722
O       9.91657      6.04880      4.57904        -0.636506     -0.910432      0.371165
O       9.86779      5.72891      8.56454        -0.117545     -0.107350     -0.186094
O       9.70008      9.65896      0.51937        -0.042032      0.056109     -0.005172
O       9.46529      9.55017     12.80379         1.189338      0.256862      0.985152
O       9.55440      9.81128      4.61678         0.346534     -0.715442     -1.004575
O       9.77144      9.75179      8.58332         0.133797      0.120662     -0.327291
O       3.94220      1.79147      2.37131        -0.525552     -0.028997     -0.087603
O       3.84254      1.74597     14.86607         0.718572      0.533709      0.389597
O       3.81043     13.67367      2.24679         0.219836      0.124206      0.252307
O       3.96502     13.63225     15.09776        -0.843178      0.226780     -0.419996
O      15.59725      1.94133      2.29869        -0.205960     -0.252418      0.105790
O      15.46705      1.90821     15.07063         0.894303     -0.380090      0.296411
O      15.50731     13.48769      2.51993         0.473750      0.427733     -0.114447
O      15.50538     13.50860     14.85878         0.361515      0.538489      0.064187
O       3.83467      2.04646      6.73778         0.135218      0.088070     -0.408626
O       3.86310     13.67891      6.69317        -1.046513     -0.583860     -0.065135
O       0.00461      1.83375      6.55716        -0.105925      0.084911     -0.190869
O       0.05232     13.79125      6.28889        -0.754713     -0.144177      0.513655
O       3.88419      1.99182     10.86418         0.344628     -0.473536     -0.147958
O       3.89931     13.60157     10.78695         0.752256     -0.027088      0.151308
O       0.13792      2.03579     10.89371        -1.514949     -0.288131     -0.135493
O       0.06457     13.57528     10.90487         0.030386     -0.374913      0.478701
O       3.95119      5.69787      2.68057         0.445485      0.916948     -0.589016
O       3.98062      5.97945     14.96386        -0.880313     -0.318580      0.137346
O       0.07410      5.75050      2.33347        -0.236336     -0.041118     -0.098566
O      15.48703      5.64051     15.22882         0.338958      1.382256     -0.744774
O       3.88232      5.70749      6.47804         0.527928      0.096494      0.161368
O       0.02146      5.91546      6.69628        -0.228229      0.041951     -0.014674
O       4.08321      5.88770     10.93867        -1.793052     -0.131770     -0.366687
O       0.19496      5.87350     10.57541        -1.139997     -0.712495      0.313157
O       3.88702      9.61412      2.59383        -0.336296      0.401466     -0.305324
O       3.96815      9.52083     14.94148        -1.199269      0.566870     -0.118387
O      15.60491      9.76110      2.34538         0.461807     -0.023073      0.749483
O       0.05707      9.67453     14.63464        -0.582112      0.351553      0.170098
O       3.83322      9.77878      6.60666         0.052458      0.420831     -0.180320
O      15.50896      9.62038      6.79346         0.637002      0.109935     -0.558193
O       3.95069      9.70797     10.74686         0.477693      0.120121      0.256053
O       0.16870      9.58893     10.85322        -1.256186      0.371604      0.216573
O       7.83145      1.87625      2.45914        -1.357416      0.012578      0.518817
O       7.78692      2.10479     14.92019        -0.927029     -0.366022      0.097616
O       7.76676     13.51869      2.44379        -0.671684      0.540964      0.469792
O       7.83384     13.46559     14.92059        -0.675905      0.096490      0.256943
O       7.81430      1.79500      6.80223         0.768907      0.186322     -0.646848
O       7.69433     13.67860      6.57989         1.636821      0.247262      0.618523
O       7.80946      1.69862     10.67001         0.278684      0.329086      0.118134
O       7.75430     13.47715     10.69398         1.325068      0.808530      0.019443
O       7.85968      5.63816      2.62644        -0.657211      0.293405      0.246050
O       7.77968      5.87308     14.70326         1.332548      0.036776      0.563304
O       7.78415      5.90125      6.69136         0.236564     -0.592728      0.028393
O       7.79393      5.93838     10.63385         1.347464     -0.234178      0.129974
O       7.79814      9.70602      2.52397        -1.140600      0.352552     -0.138547
O       7.81337      9.80020     15.08147        -0.114177     -0.031188     -0.137784
O       7.68610      9.68380      6.74369        -0.373690      0.110287     -0.370488
O       7.83748      9.72726     10.76470         0.115263      0.074565     -0.660484
O      11.63289      1.95516      2.37382         1.247147     -0.700466      0.595548
O      11.54303      1.93745     14.92514         0.235803     -0.516543     -0.316407
O      11.58879     13.69866      2.32396         1.211003     -0.015443      0.422320
O      11.63510     13.64182     15.01344         0.530569      0.338601     -0.232106
O      11.73578      1.74175      6.45160         0.041838      0.227379      0.297229
O      11.76836     13.60265      6.62339        -0.799952     -0.084321      0.264020
O      11.78539      1.80820     10.85346        -0.422320      0.483512      0.085088
O      11.77080     13.54694     10.70672        -0.079515     -0.045432      0.192878
O      11.66113      5.79296      2.48548         0.790315      0.543164      0.343157
O      11.65328      5.75407     14.78872         0.532867      0.691395     -0.065679
O      11.74306      5.63989      6.50509         0.216853      0.369799      0.575949
O      11.66488      5.50906     10.68555         0.880034      0.414397     -0.168756
O      11.75848      9.56528      2.36365        -0.801176      0.148037      1.036022
O      11.70131      9.67468     14.89780        -0.434900     -0.124021     -0.141551
O      11.59572      9.76101      6.45661         0.985177      0.050009      0.437361
O      11.66761      9.68321     10.81913         0.507790      0.236923     -0.194569
O       2.11680      3.81735      2.31634        -0.485812     -0.851340      0.014803
O       1.93179      3.92123     15.29016         0.699678     -1.703219     -0.186481
O       1.87180     15.53886      2.50446        -0.227754     -0.363963     -0.351196
O       1.87867     15.51211     14.91890        -0.100245      0.180868      0.310865
O      13.67868      3.89600      2.15245        -0.348805     -0.136366      0.476178
O      13.48007      3.88480     15.07493         0.266113     -0.182353     -0.416070
O      13.66050     15.56794      2.29624         0.055682     -0.330910      0.262612
O      13.50987     15.59226     15.07978         0.197901     -1.713696      0.023361
O       1.73433      3.93879      6.57640         0.461952     -0.955173      0.065019
O       2.07018      0.07890      6.55199        -0.579581     -0.841481     -0.135272
O      13.72261      3.78699      6.60982         0.168211     -0.127894      0.019501
O      13.75235     15.57072      6.59787        -0.307622     -0.499932     -0.134446
O       2.15774      3.94093     10.71735        -0.193636      0.493067     -0.133938
O       2.01174     15.57053     10.75171        -0.076704      0.669662      0.275379
O      13.62500      3.74463     10.93086         0.675132      1.372014     -0.040148
O      13.78722     15.57387     10.72152        -0.038195      0.203179      0.600143
O       1.92193      7.69468      2.50235         0.187213      0.828629      0.136597
O       1.89713      7.76878     15.04416        -0.175749     -0.286293     -0.364047
O      13.85739      7.80087      2.56442        -0.416498     -0.674438      0.008498
O      13.69976      7.86330     14.71915         0.206499     -1.489011      0.361106
O       2.06711      7.79773      6.42817        -0.045381      0.705652     -0.019443
O      13.56558      7.65677      6.58882        -0.199937      1.048000      0.223414
O       2.10420      7.74186     10.80110         0.351053     -0.437213     -0.089611
O      13.74499      7.66145     10.87951        -0.276710      0.139970     -0.533988
O       1.97352     11.57837      2.39378         0.090247      0.774596      0.134519
O       1.98971     11.61366     14.97963         0.174920      0.291389     -0.518972
O      13.47251     11.61489      2.48615         0.417294      0.105700      0.384518
O      13.54918     11.64339     14.89538         0.216209      1.129229     -0.282555
O       1.80575     11.76076      6.67235         0.313599     -0.726602     -0.530688
O      13.74280     11.72798      6.67940        -0.235215     -0.276025     -0.172391
O       2.05186     11.67253     10.77192        -0.182690     -1.008558      0.545781
O      13.77157     11.59761     10.70974        -0.291301     -0.726457      0.310067
O       5.83898      3.73698      2.66908         0.221767      0.281976     -0.663043
O       5.78632      3.98320     14.96460        -0.219804     -1.065490      0.048203
O       5.85909     15.56572      2.45369         0.162999      0.114725     -0.041437
O       6.00752      0.09435     14.92930        -0.257088     -1.154824     -0.025460
O       6.01759      3.79778      6.72384        -0.641037      1.230365     -0.328053
O       5.67680     15.60216      6.69843         0.444944      0.773918     -0.091153
O       6.00920      3.83957     10.63825        -0.184786      0.026260      0.210662
O       5.97280     15.54359     10.83665        -1.143591     -0.779708      0.130725
O       5.87719      7.78290      2.46148         0.317050     -0.532552      0.824290
O       6.04187      7.79253     14.87640        -0.377162      0.776639      0.396791
O       5.73968      7.78110      6.38132        -0.060419     -0.329076      0.700818
O       6.01326      7.77354     10.76871        -1.073588      0.701225     -0.150321
O       5.73708     11.72627      2.17847        -0.177093     -0.871270      0.804917
O       5.81777     11.62933     15.02637        -0.196331      0.491380     -0.044756
O       5.77856     11.78853      6.64376         0.051623     -1.349901     -0.022472
O       5.97633     11.72106     10.77419        -1.199711     -1.256246     -0.092231
O       9.80680      3.77755      2.61609        -0.530508      1.324805      0.164966
O       9.67342      3.93111     14.69190         0.283268      0.296078     -0.231530
O       9.67372     15.56930      2.39773         0.045849     -0.887865      0.405601
O       9.48687     15.57582     15.01783         0.916333     -0.082573     -0.225014
O       9.83474      3.83993      6.27733        -0.703642     -1.078378      0.782168
O       9.81309     15.55605      6.78803        -0.295600     -0.239356     -0.175769
O       9.49424      3.79820     10.79140         0.872993      0.418037     -0.001065
O       9.91202     15.52673     10.60286        -0.408442     -0.704252      0.148285
O       9.63743      7.72671      2.61367         0.289155      0.801882     -0.254061
O       9.88860      7.74335     14.88043        -0.822054      0.963741      0.234884
O       9.72318      7.74752      6.65497         0.102636      0.729636      0.524079
O       9.93779      7.77314     10.43056        -0.383727      0.090646      0.258966
O       9.72778     11.70175      2.76550         0.485049     -0.745588     -0.361271
O       9.87758     11.68705     14.75058        -0.358017     -0.813873      0.314919
O       9.45430     11.64686      6.49209         0.630456      1.276794      0.195835
O       9.85597     11.66484     10.72635        -0.119778     -0.374815      0.291052
