  # total energy = -7882.98828416 
CRSYTAL
PRIMVEC
    15.6080000000000005    0.0000000000000000    0.0000000000000000
     0.0000000000000000   15.6080000000000005    0.0000000000000000
     0.0000000000000000    0.0000000000000000   16.6239999999999988
PRESSURE
-0.480177 -0.510943 -0.413627 0.176334 -0.131031 -0.060033
PRIMCOORD
320 1
Pb       3.80402      3.81669      4.11730         0.658146     -0.014188      0.036814
Pb       3.82985      3.82330     16.51110         0.375425      0.108136      1.290443
Pb       3.91058     15.48935      4.13623         0.006187      0.233684      0.052269
Pb       3.98989     15.59373     16.54689        -0.708402      0.137156      0.751270
Pb       0.02966      3.94287      4.11950        -0.248898     -0.324833     -0.159402
Pb       0.03541      3.87963     16.61769        -0.076807      0.073367      0.326947
Pb       0.02812     15.52315      4.20327        -0.198643     -0.237215     -0.428394
Pb      15.60704      0.00390     16.56145        -0.263333     -0.543687      0.376362
Pb       4.01696      3.90722      8.19046        -0.651153      0.135323      0.960789
Pb       3.87595     15.41448      8.19625        -0.058788      1.174796      0.722671
Pb      15.60222      3.91765      8.28458        -0.296102      0.027848     -0.353955
Pb      15.51291     15.52191      8.32981        -0.163428      0.371646     -0.088838
Pb       3.87818      3.78525     12.42582        -0.120396      0.396194     -0.287207
Pb       3.96142      0.09957     12.51354        -0.164253     -0.278704     -0.286320
Pb      15.59820      4.03377     12.53572        -0.002393     -0.557051     -0.222978
Pb       0.04634     15.50389     12.40178        -0.272337      0.423907      0.781307
Pb       3.95938      7.75635      3.99215        -0.097509     -0.198596      0.846052
Pb       3.90413      7.82865     16.60531         0.077951     -0.255486      0.022869
Pb      15.44285      7.74760      4.10908         0.347341      0.216156      0.323317
Pb      15.59493      7.72785     16.58910        -0.058558      0.104416     -0.166790
Pb       3.76877      7.78005      8.30243        -0.049455      0.390851      0.358048
Pb      15.56349      7.71940      8.28693         0.295791      0.648495     -0.127755
Pb       3.87168      7.73840     12.36400        -0.051877      0.450569     -0.065779
Pb      15.57645      7.75442     12.37727         0.007150      0.234479      0.228274
Pb       3.90043     11.65580      4.14511         0.214564      0.011320      0.277069
Pb       3.84119     11.73389      0.06205         0.348628     -0.137679     -0.579539
Pb      15.59531     11.61779      4.11722         0.035405      0.088304      0.179654
Pb      15.58874     11.58414     16.54048        -0.000285      0.460514     -0.280641
Pb       3.91341     11.70694      8.42559        -0.457757     -0.653783     -0.815766
Pb       0.07604     11.74459      8.28109        -0.430300     -0.494897      0.203837
Pb       3.79388     11.65346     12.45994         0.110655     -0.294363      0.327446
Pb      15.49551     11.82575     12.51613        -0.045201     -0.151510     -0.199007
Pb       7.83179      3.93051      4.08227        -0.349591     -0.361460      0.600585
Pb       7.82831      3.83721     16.61718        -0.466712      0.305999      0.108146
Pb       7.86335      0.02321      4.20535        -0.197149      0.085019     -0.317100
Pb       7.77884     15.56321     16.52394         0.445583      0.420611      0.243262
Pb       7.90282      3.80931      8.22266        -0.590187      0.215983      0.351723
Pb       7.71864      0.01953      8.14944         0.695209      0.357998      1.117490
Pb       7.86616      3.87368     12.53056        -0.471608     -0.371030     -0.688879
Pb       7.76240     15.57919     12.32786        -0.353969      0.265798      0.170722
Pb       7.92830      7.77576      4.15698        -0.720516      0.280511      0.315881
Pb       7.66372      7.59443      0.04807         0.161671      0.091508     -0.045799
Pb       7.74039      7.72540      8.23512         0.299388      0.247822      0.537674
Pb       7.63960      7.92912     12.47799         0.105078     -0.137744     -0.437213
Pb       7.81122     11.64131      4.10903        -0.395462      0.250671      0.703352
Pb       7.81368     11.74472     16.60386        -0.424852     -0.319107      0.246549
Pb       7.95066     11.65356      8.39836        -0.350889     -0.067248     -0.027911
Pb       7.78072     11.82818     12.44704        -0.058369     -0.527545     -0.137630
Pb      11.65193      3.81758      4.02442         0.569551      0.044326      0.499786
Pb      11.64244      3.80120      0.06490        -0.117954      0.664569     -0.549566
Pb      11.76798     15.55613      4.12529         0.145522     -0.270068     -0.236959
Pb      11.74758     15.59520     16.52814        -0.016887     -0.046121      0.092067
Pb      11.67159      3.85292      8.28149         0.329079     -0.228402     -0.061777
Pb      11.81948     15.59089      8.37518        -0.308994      0.162267     -0.422640
Pb      11.61963      3.92673     12.32595         0.186594     -0.326448      0.216447
Pb      11.51459      0.08911     12.46683         0.492968      0.244177      0.109324
Pb      11.67991      8.04242      4.24974         0.075092      0.164676     -0.375023
Pb      11.79828      7.76006     16.59374        -0.794964      0.026503     -0.170123
Pb      11.71221      7.66184      8.38775        -0.249335      0.504362     -0.099678
Pb      11.75000      7.84325     12.45016        -0.026205     -0.455205     -0.493888
Pb      11.79862     11.81935      4.07771        -0.444339     -0.181005      0.882929
Pb      11.51638     11.62557      0.00354         0.481619      0.127374     -0.097886
Pb      11.59199     11.70042      8.36394         0.114025     -0.062995     -0.126441
Pb      11.68165     11.58640     12.51927        -0.263359      0.471986     -0.553427
Ti       1.88705      1.80067      2.20988         0.531357      0.897457     -0.888815
Ti       1.85351      1.87927     14.74009         0.727646     -0.133254      0.510028
Ti       1.97535     13.54548      2.21723        -0.255741      0.132752     -0.199548
Ti       1.94123     13.62126     14.81030        -0.296288      0.166948     -0.954443
Ti      13.66394      1.96371      2.11474         0.311646     -0.682364      1.459330
Ti      13.61878      2.03423     14.73210        -0.283758     -0.737595     -1.497402
Ti      13.68245     13.62596      2.15669        -0.162943      0.783997     -0.053521
Ti      13.59874     13.67436     14.67218         0.683434      0.440698     -0.064906
Ti       1.92231      2.00725      6.39073        -0.051554     -0.183096      0.247639
Ti       1.91877     13.73222      6.45249        -0.351156     -1.215992     -1.465018
Ti      13.67491      1.94703      6.28769        -0.529159      0.624817      0.014687
Ti      13.61386     13.63304      6.43304        -0.421837     -0.241952     -0.627045
Ti       1.83860      1.99528     10.38938         0.127986     -0.086535      0.209078
Ti       1.93853     13.68015     10.59505        -0.922100      0.056388     -0.351776
Ti      13.69018      1.88865     10.63037        -0.789688      0.762673     -0.175610
Ti      13.57812     13.72038     10.57602         0.634663     -1.298499     -0.246841
Ti       1.92835      5.76880      2.19902         0.836908     -0.194742     -1.050600
Ti       1.88528      5.83469     14.79588         0.523264     -0.542839     -0.006899
Ti      13.63665      5.84536      2.12348         0.467434     -0.509418      0.086751
Ti      13.56987      5.90318     14.69673        -0.055801     -0.683296     -0.442945
Ti       1.96398      5.88789      6.36904        -1.171185      0.450386      0.196603
Ti      13.59467      5.92877      6.35872         0.350086     -1.298023     -0.309365
Ti       1.91806      5.85091     10.49030         1.406116     -0.050960     -0.868465
Ti      13.65221      5.74303     10.52718        -0.651283      0.650271      1.670799
Ti       1.98372      9.64014      2.15325        -0.624414      0.753107      0.087369
Ti       1.93976      9.68847     14.66045         0.110965      1.030052     -0.800227
Ti      13.62991      9.78895      2.08512        -0.157193      0.181381      0.648252
Ti      13.60166      9.83921     14.57448        -0.067857     -0.108342     -0.072901
Ti       1.88059      9.78362      6.33877        -0.016763     -0.241268      0.974494
Ti      13.56793      9.78120      6.45654         0.743895      0.591620      0.143106
Ti       1.80490      9.78761     10.60960         0.708793     -0.846912     -0.359283
Ti      13.60638      9.74047     10.51271        -0.136201      0.697240      0.190021
Ti       5.79440      1.89194      2.27328         0.304853      0.364241      0.463234
Ti       5.76403      1.97732     14.73499         0.747823      0.295615     -0.490804
Ti       5.87790     13.65982      2.17595         0.012928     -0.468653      0.513524
Ti       5.86977     13.73145     14.70315        -0.445335     -1.261762     -0.081831
Ti       5.82447      1.97522      6.40854        -0.219352      0.434099     -1.424600
Ti       5.88162     13.66622      6.41328         0.032709     -1.350497     -0.203432
Ti       5.78888      1.91761     10.48822         0.698021     -0.168703     -0.169077
Ti       5.73518     13.56353     10.49433         0.771487      0.993450      1.475261
Ti       5.88344      5.73210      2.34473        -0.259982      0.095221     -0.268811
Ti       5.72565      5.86915     14.57391         0.380485     -1.000522      0.756551
Ti       5.81036      5.88562      6.45581         0.322563     -0.584256     -1.898243
Ti       5.90610      5.76547     10.57224        -1.060681      0.357717     -1.073375
Ti       5.80731      9.70005      2.20744         0.327511      0.385688     -0.082960
Ti       5.86396      9.77543     14.75315        -0.340787      0.614630     -0.805200
Ti       5.76187      9.76089      6.51203         0.313655      0.558422     -1.098586
Ti       5.79159      9.72940     10.49591        -0.003519     -0.342150      0.645306
Ti       9.76154      1.93590      2.17449        -0.734038     -0.394588      1.246597
Ti       9.68074      2.02520     14.65061         0.308720     -0.616489     -0.444709
Ti       9.71001     13.66902      2.16672         0.267099     -0.250595      1.438100
Ti       9.72469     13.60885     14.66620         0.204753      0.684966     -0.475764
Ti       9.78490      1.95568      6.27818        -0.056746     -0.764270      0.315546
Ti       9.76373     13.70707      6.41967         0.313913     -0.646212     -1.013399
Ti       9.65452      1.92785     10.45896         0.547736      0.486915      0.373471
Ti       9.72605     13.70005     10.57480         0.233600     -0.900515     -1.156061
Ti       9.85202      5.88425      2.26915        -0.980062      0.159433     -0.496945
Ti       9.64252      5.90424     14.55853         0.831791     -0.361790      1.141515
Ti       9.70858      5.81470      6.34393        -0.132255      0.271485      0.687126
Ti       9.68018      5.82091     10.46636         0.395092      0.566006     -0.021273
Ti       9.67676      9.82996      2.29816         0.374139     -0.733330     -0.556067
Ti       9.69789      9.66845     14.71788         0.045324      0.206925     -0.179174
Ti       9.67519      9.74627      6.44172         0.239573      0.287012     -0.412181
Ti       9.68589      9.71833     10.61256        -0.451672      0.056100     -1.382448
O       1.98217      1.81976      0.39970        -0.371777      0.379322      0.781264
O       1.94639      1.80550     12.99583         0.195389      0.378829     -0.680668
O       2.01064     13.46224      0.39947        -0.083056      0.070619      0.834594
O       1.95492     13.64435     12.99812        -0.248013      0.231256     -0.511855
O      13.56552      1.86154      0.37470         0.183872      0.193753     -1.005377
O      13.57845      1.91892     12.90035        -0.052603      0.233227      1.168724
O      13.54485     13.65421      0.38714         0.278128     -0.327375      0.221447
O      13.75834     13.71422     12.88416        -0.392627     -0.279336      0.264997
O       1.91328      1.96422      4.61509        -0.243708     -0.175816     -0.353254
O       1.96900     13.75929      4.64478        -0.341592     -0.141196     -0.038082
O      13.58146      2.06270      4.48278         0.192149     -0.508997      0.654340
O      13.64522     13.68328      4.60767         0.041264     -0.058105      0.480219
O       1.83884      2.11927      8.59660        -0.053448     -0.506750      1.556815
O       1.85435     13.60345      8.78963         0.262436     -0.015439      0.051406
O      13.66708      1.93528      8.85651        -0.097635     -0.129804     -0.432941
O      13.64384     13.80890      8.71752        -0.377359     -0.225780      0.855852
O       1.93472      5.75106      0.35635        -0.238595      0.347349      1.535104
O       1.89191      5.66936     13.03199         0.046669      0.494784     -0.369879
O      13.69369      5.90108      0.33330        -0.023460      0.332539      0.326106
O      13.57890      5.81427     12.89152         0.309362      0.081075      0.128123
O       1.67806      6.03622      4.60631         0.785455     -0.448620     -0.362401
O      13.58431      5.77783      4.58417         0.288056      0.293781     -0.534742
O       1.92492      5.87057      8.67532        -0.397110      0.112054      0.795826
O      13.65308      5.76457      8.80986        -0.130072      0.318894     -1.184595
O       1.88661      9.80150      0.33397         0.232474      0.024546      0.601357
O       1.99443      9.61844     12.85588        -0.109954      0.394713      0.935198
O      13.61404      9.82201      0.30861         0.235652     -0.305527      0.620678
O      13.33860      9.91384     12.75484         0.568338     -0.793882      1.092560
O       1.91000      9.68966      4.59079        -0.049317     -0.053105     -0.731661
O      13.70792      9.87449      4.66856        -0.304631     -0.685495     -0.527238
O       1.95798      9.80579      8.84910        -0.376802     -0.176175     -0.005937
O      13.57298      9.75242      8.76453        -0.160085     -0.210700     -0.804464
O       5.83195      2.02974      0.50547         0.321529     -0.383683     -0.659273
O       5.84837      1.89614     12.96138        -0.479911     -0.279553     -0.860825
O       5.84733     13.80897      0.42081         0.286311     -0.392375     -0.606047
O       5.88530     13.66844     12.92589        -0.106807      0.121690     -0.106473
O       5.83226      1.92831      4.59466        -0.439967     -0.091612      1.029063
O       5.80830     13.63802      4.64990         0.174309      0.068857      0.238967
O       5.80099      1.94081      8.72081        -0.040007      0.180228     -0.083871
O       5.54579     13.60168      8.78607         0.363882      0.301706     -1.572314
O       6.02321      5.71259      0.55669        -0.076520      0.363707     -0.326018
O       5.76658      5.86680     12.82187        -0.212873     -0.173416     -0.241880
O       5.74335      5.68655      4.63243         0.112655      0.997063      0.457786
O       5.90944      5.74610      8.74050         0.019574      0.412568      0.647778
O       5.82182      9.62523      0.42885        -0.030831     -0.054746     -0.644529
O       5.78464      9.80921     12.94894         0.395303     -0.273531      0.891022
O       5.82609      9.89658      4.68648        -0.284083     -0.640811      0.471244
O       5.87372      9.70450      8.74474        -0.207794      0.195352     -0.622683
O       9.69693      2.00378      0.43664        -0.199267     -0.141331     -0.732320
O       9.69833      2.05485     12.78805        -0.034569     -0.114957      1.758837
O       9.66642     13.53650      0.39063         0.294527      0.339337      0.030443
O       9.57695     13.80420     12.85735         0.475088     -0.497331      0.533919
O       9.76045      1.96750      4.48135         0.128141     -0.028618      0.151241
O       9.78816     13.52469      4.59241        -0.231453      0.702158      1.139486
O       9.55245      1.89115      8.69910         0.433670      0.167700     -0.465524
O       9.94385     13.61745      8.74382        -0.449376      0.343221      1.163631
O       9.73835      5.99132      0.51928        -0.146708     -0.034898     -0.071491
O       9.85244      5.86328     12.81861        -0.449967     -0.238006     -0.254098
O       9.78362      5.59687      4.58962         0.572337      0.931744     -0.308833
O       9.69108      5.83339      8.64368        -0.114587     -0.129780      0.570821
O       9.80642      9.79164      0.51305        -0.402783      0.034164     -0.398033
O       9.72141      9.86824     12.92658         0.254310     -0.635059      0.150462
O       9.68846      9.73689      4.58487         0.123934      0.035352      0.854063
O       9.63354      9.87162      8.77103         0.312203     -0.280453      0.437483
O       3.85169      2.01443      2.54543         0.218725     -0.337192      0.132981
O       3.88731      1.90161     15.07533        -0.209033     -0.336858     -0.536640
O       3.90474     13.66918      2.58748        -0.054433     -0.442190     -0.280464
O       3.93449     13.62351     14.99272         0.479510      0.047208      0.243203
O      15.58221      1.97242      2.47065         0.338681     -0.762022      0.121861
O      15.56793      1.76162     15.01222         0.096583      0.777563     -0.059998
O       0.02455     13.57469      2.60597         0.406807      0.417647     -0.420556
O      15.57918     13.76910     15.08703         0.205510     -0.824627     -0.214610
O       3.82502      1.99284      6.70151         0.173852     -0.212852     -0.135511
O       3.79781     13.63794      6.70957         0.975277      0.148466      0.103616
O      15.54749      1.87872      6.67470        -0.213414      0.560753     -0.296554
O      15.48645     13.60004      6.72493         1.160419      0.285246     -0.010459
O       3.89080      1.88169     10.84878        -1.240054      0.361651     -0.004861
O       3.79387     13.66909     10.89963         0.354165     -0.194447      0.007372
O      15.55829      1.99069     10.92394         0.893735      0.137096     -0.289169
O      15.54325     13.60525     10.96613         1.030769      0.128633     -0.470656
O       3.95018      5.63895      2.51838        -0.887989      0.751866      0.131826
O       3.84567      5.72286     15.13437         0.580856      0.987366     -0.740081
O       0.03917      5.84384      2.49829        -0.661173      0.620702     -0.185753
O       0.02347      5.80589     15.14303        -0.527918      0.431461     -0.542656
O       3.80875      5.89320      6.66577         0.441994      0.134214      0.005197
O      15.49083      5.93462      6.77332         0.410348     -0.614966     -0.290367
O       3.88044      5.74000     10.67390        -0.333835      0.160924      0.910795
O       0.04725      5.90094     10.82502        -1.450371     -0.141069      0.289112
O       3.87485      9.76202      2.56407         0.274311      0.190958     -0.153638
O       3.90949      9.78018     14.97345        -0.332089     -0.129855      0.310222
O       0.06752      9.69922      2.47464        -0.895834     -0.143130     -0.156893
O      15.47108      9.84243     14.77059         1.218654     -0.429349      0.525094
O       3.82706      9.73472      6.80812         0.595065     -0.041292     -0.279032
O      15.51966      9.78461      6.84877         0.409732     -0.103033     -0.513361
O       3.91196      9.64615     10.84336        -0.603507      0.876814      0.144616
O      15.48975      9.61605     10.89572         0.980360      0.288724      0.013087
O       7.71460      1.82179      2.68986         1.254194      0.132584     -0.872324
O       7.79132      2.02343     14.95630         0.333645     -0.010945      0.318098
O       7.82183     13.62797      2.53733        -0.124806      0.206851     -0.190650
O       7.81388     13.61166     14.97006        -0.141530      0.884674      0.468854
O       7.69282      1.91930      6.63039         0.837178      0.358014      0.033511
O       7.77652     13.67907      6.83125        -0.717786     -0.139937     -0.524993
O       7.76329      1.93703     10.79559        -0.665703     -0.122917      0.369185
O       7.82088     13.70707     10.64390        -0.879063     -0.064900      0.469462
O       7.85413      5.96263      2.68581         0.066631     -0.447014     -0.349384
O       7.74786      5.90572     14.84795        -0.199753     -0.465492      0.114461
O       7.74186      5.81162      6.53884         0.979789      0.049802      0.389773
O       7.76455      5.90207     10.93803         0.154922     -0.503235     -0.128073
O       7.68768      9.73818      2.58584         1.099779     -0.248295     -0.111141
O       7.85176      9.59398     14.97159        -1.195377      0.362018      0.335557
O       7.81955      9.77901      6.83472        -0.545076     -0.084248     -0.499470
O       7.74344      9.80532     10.92692        -0.279590     -0.359707      0.165488
O      11.68412      1.92735      2.42140        -0.205437      0.396202      0.037982
O      11.64448      2.04180     15.05933         0.344314      0.030997     -0.263053
O      11.75104     13.57079      2.60878        -0.727954      0.025323     -0.787219
O      11.66579     13.63984     14.93933        -0.684762     -0.135636     -0.137060
O      11.61400      1.87949      6.64478         0.366868      0.135492      0.070848
O      11.67097     13.67720      6.70583        -0.295111      0.299765      0.022241
O      11.63079      1.99224     10.79964         0.294883     -0.447868      0.078497
O      11.74875     13.67467     10.98692        -0.821453      0.172893     -0.319714
O      11.79994      5.68504      2.37187        -0.940441      0.296512      0.360323
O      11.71011      5.83589     15.06025         0.016961      0.173061     -0.203060
O      11.72206      5.88415      6.78460        -1.269104     -0.029553     -0.178629
O      11.66180      5.79609     10.76665        -0.140497      0.335711     -0.124538
O      11.67317      9.90687      2.49416         1.011849     -0.681175      0.164259
O      11.68482      9.80164     15.06880        -0.432470     -0.263672     -0.349623
O      11.65791      9.64742      6.71505        -0.626806      0.093288     -0.012243
O      11.55070      9.73972     10.77243         0.822079      0.150559      0.442233
O       1.90171      3.89436      2.56050        -0.183062      0.069136     -0.013491
O       1.95247      3.82925     15.13495        -0.691705     -0.384448     -0.804294
O       2.02191     15.57711      2.46946        -0.518364     -0.596751      0.373030
O       2.00675     15.52124     15.14336        -0.071092      0.682316     -0.278540
O      13.80320      3.84241      2.33752        -0.591119      0.876996      0.171985
O      13.79410      3.92216     15.03555        -0.420462     -0.611672     -0.156193
O      13.59797     15.51669      2.46304         0.339177      0.892078      0.327767
O      13.61268     15.57792     15.01879        -0.533801      0.556194      0.084576
O       1.88176      3.96836      6.66951        -0.284088     -0.260143     -0.485936
O       1.81796     15.57905      6.65401         0.286870      0.710693      0.480578
O      13.46386      3.85387      6.73794         0.791410     -0.122459     -0.232868
O      13.56748      0.03255      6.70288         0.239829      0.041911     -0.218271
O       1.77879      3.92363     10.86812         0.619884     -0.871547     -0.128576
O       1.74022      0.02845     10.66931         0.642030     -0.048293      0.186257
O      13.58028      3.89152     10.91379         0.650548      0.287468     -0.174927
O      13.74559     15.58508     10.82791        -0.441178      0.397916      0.173852
O       2.19790      7.77873      2.33029        -0.727766     -0.420183      0.096597
O       1.88310      7.84317     15.09978         0.141289     -0.735248     -0.300911
O      13.56936      7.78392      2.46961         0.120376      0.555189     -0.047109
O      13.67644      7.81649     14.78537        -0.209909      0.279362      0.671458
O       1.87731      7.87371      6.75676        -0.105777     -0.753374      0.124120
O      13.60206      7.80306      6.61913        -0.023379      0.105217      0.296682
O       1.98215      7.77947     10.95819        -0.460604     -0.687021     -0.510365
O      13.56967      7.83595     10.83727        -0.200666     -1.085370      0.335998
O       2.00886     11.66564      2.64699        -0.147188      0.165103     -0.588243
O       1.91915     11.69246     14.92721        -0.014845     -0.687465      0.345674
O      13.72449     11.68787      2.50587         0.108556     -0.795380     -0.219634
O      13.65299     11.73399     14.89909        -0.210674     -0.096192      0.071446
O       1.92557     11.67507      6.66114        -0.283966      0.514727      0.219675
O      13.50440     11.72051      6.74009         0.174064     -0.017907      0.079048
O       1.88618     11.63833     10.90443         0.083364      0.977972      0.194776
O      13.73237     11.69645     10.82341        -0.716470      0.296352     -0.021152
O       5.93786      3.85288      2.66294        -0.000986     -0.232892     -0.401623
O       5.74671      3.82668     14.82852         0.319886      1.570302      0.516011
O       5.82918     15.53169      2.56370        -0.161813      0.650937      0.123504
O       5.93024      0.06096     15.05797        -0.221320     -1.074297     -0.207839
O       5.80762      3.99583      6.74867        -0.056151     -1.679275     -0.101003
O       5.80677      0.05404      6.74921        -0.494050     -1.238252     -0.255486
O       5.82201      3.84729     10.87278         0.133191      0.012701      0.207128
O       5.77162     15.53115     10.82469         0.096557      0.460014      0.135692
O       5.78421      7.77579      2.52444        -0.004274     -0.199019      0.171643
O       5.77912      7.71341     15.01070        -0.058167      0.529015     -0.023199
O       5.87130      7.79383      6.79856        -0.425689      0.126419     -0.422796
O       5.72733      7.80568     10.87451         0.892759     -0.606029      0.020061
O       5.84355     11.68642      2.29045        -0.233540      0.342853      0.684000
O       5.98186     11.74156     15.08022        -0.445000     -0.719637     -0.098868
O       5.80104     11.67763      6.74664        -0.119146      0.911871      0.341428
O       5.80884     11.68363     10.80159        -0.291844      0.579607      0.156099
O       9.65845      3.90804      2.41766         0.269857     -0.413892      0.020723
O       9.71255      4.00466     15.15554         0.038511     -0.551894     -0.792359
O       9.83459     15.52695      2.52452        -0.383730      0.404235     -0.243885
O       9.79223      0.09762     14.99419        -0.395116     -0.466006     -0.210593
O       9.71950      3.83542      6.69652         0.132885      0.561532     -0.144430
O       9.61686      0.02260      6.60294         0.071265     -0.180016     -0.044842
O       9.65514      3.87574     10.75260        -0.155584      0.702378      0.137391
O       9.72801      0.04684     10.83644         0.212450     -0.806525      0.112225
O       9.80265      7.84753      2.66350         0.366338     -0.527056      0.062897
O       9.69687      7.74911     14.96807         0.794031      0.608950      0.004964
O       9.59276      7.77854      6.60664         0.641810     -0.342981     -0.090154
O       9.61042      7.75738     10.70197         0.412617      0.487329      0.516725
O       9.66197     11.66332      2.67936         0.296683      0.702569     -0.928119
O       9.60078     11.71744     15.02079         0.765868     -0.327176     -0.306423
O       9.67027     11.75367      6.77291         0.409580     -0.673879     -0.203476
O       9.62987     11.73207     10.90194         0.529240      0.470059     -0.068105
