  # total energy = -7882.64619608 
CRSYTAL
PRIMVEC
    15.6080000000000005    0.0000000000000000    0.0000000000000000
     0.0000000000000000   15.6080000000000005    0.0000000000000000
     0.0000000000000000    0.0000000000000000   16.6239999999999988
PRESSURE
-0.962338 -1.11317 -0.419339 0.155216 -0.376017 -0.081108
PRIMCOORD
320 1
Pb       3.77088      3.82626      4.13794         0.241982      0.037285      0.022710
Pb       3.78583      3.78141     16.50954         0.366287      0.310374      0.214678
Pb       3.90814     15.46481      4.21086         0.363831      0.204887     -0.426897
Pb       4.00325      0.00339     16.59226         0.096888     -0.422195     -0.001683
Pb       0.03068      3.94685      4.14312        -0.168584     -0.367081     -0.143163
Pb       0.02664      3.90654      0.01173        -0.237465     -0.122268     -0.538909
Pb       0.04504     15.53435      4.26624         0.018255      0.415873     -0.755132
Pb      15.60292     15.60307     16.59517         0.084534      0.004296     -0.111695
Pb       4.04496      3.95115      8.22383        -0.224884     -0.320346      0.109257
Pb       3.88172     15.43200      8.26111         0.199820      0.589015      0.592117
Pb       0.03128      3.92771      8.29207        -0.438348     -0.135412     -0.301333
Pb      15.52813     15.54736      8.35986         0.005201      0.611781     -0.084531
Pb       3.91164      3.77593     12.39106        -0.523884      0.447708      0.308585
Pb       3.97764      0.13411     12.47022        -0.715048     -0.561927     -0.140018
Pb      15.56725      4.00038     12.50536         0.525527     -0.550145      0.045013
Pb       0.01561     15.46459     12.33092         0.093336      1.344191      1.025181
Pb       3.97196      7.71889      4.04497        -0.346174      0.183306      0.466295
Pb       3.89633      7.84334      0.02744         0.002493     -0.230767     -0.728187
Pb      15.45302      7.72504      4.13244        -0.051488      0.312164     -0.326878
Pb      15.59198      7.74959      0.00427         0.381534     -0.165104     -0.867681
Pb       3.79598      7.80199      8.31093         0.189126      0.044941     -0.452248
Pb       0.02811      7.75641      8.20103        -0.191483      0.223865      0.165659
Pb       3.83557      7.75158     12.38432         0.125661      0.120913      0.481074
Pb       0.00314      7.74404     12.36548        -0.034914      0.042282      0.464118
Pb       3.92924     11.62621      4.21928        -0.122995      0.190928     -0.915697
Pb       3.86213     11.71101      0.06398        -0.077932      0.055399     -0.188367
Pb       0.02338     11.61672      4.16404         0.041392     -0.101837     -0.497277
Pb      15.59732     11.56133     16.53803         0.140273      0.428162      0.123529
Pb       3.92443     11.63726      8.42986        -0.398365      0.552331     -0.058868
Pb       0.06841     11.74622      8.31407        -0.103919     -0.327956      0.172504
Pb       3.78288     11.66180     12.51173         0.225991      0.361492     -0.548497
Pb      15.43877     11.84592     12.51210         0.587202     -0.825693      0.011484
Pb       7.85919      3.97672      4.09736         0.072519     -0.019312      0.160839
Pb       7.82137      3.80289      0.04964        -0.233413      0.042332     -0.600116
Pb       7.89775      0.04305      4.21567        -0.552084     -0.164966     -0.144408
Pb       7.80045     15.52370     16.53155        -0.511522      0.305492      0.101551
Pb       7.92398      3.84071      8.18863        -0.637085     -0.244624     -0.176752
Pb       7.70519      0.01955      8.19775         0.052811      0.032088     -0.023079
Pb       7.84880      3.91725     12.56121        -0.224188      0.444694     -0.532449
Pb       7.75713     15.58698     12.34051        -0.024874      0.092294     -0.017146
Pb       7.90936      7.77698      4.17670        -0.205342     -0.293755     -0.208177
Pb       7.70158      7.57172      0.07880         0.233302      0.413959     -0.542452
Pb       7.72029      7.73062      8.27895        -0.241826      0.137548     -0.143044
Pb       7.63626      7.96655     12.52044         0.260133     -0.505666     -0.453717
Pb       7.80241     11.62374      4.13929        -0.089174      0.186738     -0.384768
Pb       7.84884     11.69411      0.02289        -0.045021      0.034855     -0.312177
Pb       7.93602     11.61879      8.43089        -0.800890      0.461630     -0.304361
Pb       7.76679     11.84069     12.47146        -0.293414     -0.340037     -0.381157
Pb      11.60261      3.85006      3.97432         0.500822      0.436764      0.541773
Pb      11.62842      3.74063      0.01426        -0.061308      0.583463     -0.286136
Pb      11.83141     15.60213      4.14826        -0.127156      0.303704     -0.241010
Pb      11.77394     15.59711     16.55617        -0.425810     -0.038247     -0.017459
Pb      11.66238      3.77845      8.23133         0.601874      0.085766     -0.372164
Pb      11.82570     15.53840      8.37656        -0.227296      0.633940     -0.438634
Pb      11.57912      3.94169     12.32699         0.179715     -0.217792     -0.109398
Pb      11.57533      0.08621     12.52251         0.094490      0.200717     -0.689516
Pb      11.66085      8.08327      4.23639         0.372270     -0.945121      0.075448
Pb      11.80389      7.74902     16.59763        -0.589443      0.017445     -0.372549
Pb      11.70971      7.66871      8.38571         0.104084      0.049372     -0.784704
Pb      11.80482      7.76748     12.45033        -0.478462     -0.540432     -0.729836
Pb      11.73757     11.91611      4.07760        -0.100616     -0.692508     -0.000541
Pb      11.52555     11.64669      0.04590         0.358259      0.324437     -0.666327
Pb      11.55498     11.63431      8.29801         0.242114      0.003565     -0.160432
Pb      11.68650     11.55588     12.53916        -0.308687      0.507965     -0.348765
Ti       1.88219      1.91418      2.18568        -0.034888     -0.989193      0.158152
Ti       1.87202      1.81195     14.75854        -0.447334      0.895462     -1.447439
Ti       1.97252     13.57640      2.28123         0.014415     -0.144667     -1.126753
Ti       1.94036     13.56983     14.71751         0.186641      0.628441     -0.162195
Ti      13.60811      1.94993      2.11547         0.416789      0.337912      0.031030
Ti      13.53788      2.06392     14.63816         0.785881     -0.777015     -0.001142
Ti      13.72065     13.61896      2.19490         0.058085      0.426855     -0.650864
Ti      13.61030     13.71206     14.71390        -0.201875     -0.634088     -0.202202
Ti       1.90601      1.95138      6.44549        -0.288162      0.639280     -0.998213
Ti       1.87317     13.74291      6.38258         0.811792     -0.941727      0.701583
Ti      13.66758      1.98155      6.22247        -0.382334      0.022940      1.397817
Ti      13.64157     13.62425      6.40756        -0.135023      0.619179      0.692707
Ti       1.89753      1.98665     10.48366        -0.506411     -0.292406      0.416322
Ti       1.86263     13.68725     10.59221         2.132171     -0.043217     -0.381436
Ti      13.69892      1.92421     10.61102        -0.613642      0.417612     -0.615661
Ti      13.60997     13.63066     10.57904        -0.781774      0.009321     -0.041268
Ti       1.92976      5.78269      2.18240         0.214645      0.802964      0.825926
Ti       2.01875      5.78446     14.66901        -0.969603     -0.077733     -0.302208
Ti      13.63198      5.90959      2.07175        -0.716545     -0.533336      1.934301
Ti      13.62055      5.85462     14.59809         0.303657     -0.015611      0.431222
Ti       1.97290      5.90031      6.29772        -0.345776     -0.100118     -0.056026
Ti      13.65809      5.87947      6.28567        -0.741476     -0.484507      0.571844
Ti       1.94945      5.78156     10.51087        -0.146730     -0.378471      0.652568
Ti      13.68844      5.73093     10.42860        -0.677908      0.493926     -0.649096
Ti       1.89688      9.62599      2.21880        -0.010939      0.828429      0.019585
Ti       1.96228      9.71919     14.66383        -0.008092     -0.763647     -0.102880
Ti      13.55736      9.80754      2.13449         1.147905     -0.787746      1.233291
Ti      13.64692      9.76132     14.57308         0.016844      0.079449      0.728466
Ti       1.87505      9.82068      6.27006        -0.035160     -0.490093      0.236455
Ti      13.60002      9.81007      6.45147        -0.159035     -0.705964     -0.394669
Ti       1.84743      9.73373     10.60794         0.476639      0.414739      0.454028
Ti      13.58896      9.71607     10.43551         0.375878     -0.456760     -0.287157
Ti       5.83355      1.94132      2.26855        -0.658618     -0.373135     -1.112066
Ti       5.75741      2.01162     14.63958         1.048813     -0.423325      0.452464
Ti       5.87402     13.62559      2.17960        -0.707370      0.520058     -0.222374
Ti       5.86784     13.64554     14.60603        -0.666542      0.446164      0.472677
Ti       5.74651      1.93938      6.33118         0.670127     -0.536440      1.488502
Ti       5.88744     13.59658      6.43148        -0.688670      1.097967     -0.540267
Ti       5.82820      1.99525     10.49824        -0.365265     -0.299424     -0.564175
Ti       5.78803     13.67817     10.54988        -0.796562     -0.379746     -0.345049
Ti       5.86264      5.76567      2.22751        -0.284988      0.777527     -0.240873
Ti       5.82160      5.88485     14.59721        -0.168711      0.179328     -0.761801
Ti       5.89915      5.91899      6.39219        -0.649835      0.209395      0.229265
Ti       5.80965      5.84712     10.53878         1.238431     -0.426224     -0.248875
Ti       5.82856      9.67287      2.12460        -0.568533      0.279730      1.264421
Ti       5.89765      9.83030     14.70210        -0.792667     -1.153818     -0.008886
Ti       5.67831      9.89594      6.37425         1.235454     -1.503592      1.444336
Ti       5.74647      9.72185     10.47985         0.133264      1.048238      0.690146
Ti       9.67474      1.90294      2.17354         0.809754      0.163272     -0.593012
Ti       9.63117      1.92938     14.63943         0.027785      0.515462      0.670049
Ti       9.68721     13.72258      2.14782         0.129746     -0.595483      0.014496
Ti       9.72227     13.64995     14.64759         0.401402     -0.337768      0.032624
Ti       9.78512      1.80915      6.25139        -0.330109      0.644600      1.909178
Ti       9.75166     13.63201      6.31664        -0.024745      0.505212      1.562277
Ti       9.64211      1.99566     10.36655         1.122942     -0.655636      0.506051
Ti       9.77301     13.65144     10.49637        -0.440828      0.520114      1.330152
Ti       9.82752      5.88805      2.18787        -0.181714      0.200994      0.264737
Ti       9.68474      5.91648     14.56748         0.418969     -0.843754     -0.087087
Ti       9.73784      5.79381      6.36919         1.299962      0.162548     -0.871689
Ti       9.71896      5.82306     10.35510        -0.586413      0.882031      1.683518
Ti       9.74879      9.81933      2.25590        -0.158549     -0.487306     -0.352905
Ti       9.72944      9.64744     14.67838        -0.326601      0.716890     -0.481354
Ti       9.59740      9.70158      6.35709         0.789786     -0.213987      0.221227
Ti       9.64486      9.76555     10.58856         0.073987     -0.768868      1.267371
O       1.88987      1.92879      0.38950         0.429342     -0.064205      0.220936
O       2.02131      1.90752     12.97593        -0.296647      0.029256      0.004543
O       1.94589     13.45597      0.47920        -0.083079      0.288431     -0.232297
O       1.95708     13.63772     12.92867        -0.409461      0.050517      0.310481
O      13.55941      1.88919      0.30054        -0.251429     -0.305502      0.643834
O      13.45341      2.06711     12.85094         0.258380     -0.173558      0.359652
O      13.62568     13.61016      0.41191         0.136704      0.391198      0.047904
O      13.63003     13.64694     12.90388         0.020789     -0.098964     -0.254987
O       1.74820      1.90759      4.60444         0.453232      0.389716      0.244971
O       1.75451     13.72748      4.59893         0.577053     -0.116502     -0.227971
O      13.52427      1.97925      4.45745         0.485917      0.029943     -0.186353
O      13.67990     13.66959      4.66074        -0.311014     -0.329735     -1.299090
O       1.82215      2.04504      8.73910        -0.104888     -0.123939     -1.606846
O       1.79075     13.84670      8.81445         0.142416     -0.876177     -0.555183
O      13.63756      1.82166      8.83260        -0.092731      0.204907     -0.410844
O      13.71624     13.78220      8.81080        -0.218299     -0.259596     -0.305430
O       1.99377      5.81135      0.46496        -0.113542     -0.231228     -1.400960
O       2.04212      5.53970     12.89562        -0.564496      0.825401      0.115676
O      13.48323      5.94960      0.35357         0.229708      0.143682     -1.339563
O      13.66917      5.86729     12.79727        -0.518317     -0.173383      0.740508
O       1.76860      5.94168      4.51396         0.348258     -0.331017     -0.047644
O      13.71492      5.86681      4.48747         0.033062     -0.124759      0.509034
O       1.83901      5.89929      8.76942         0.188440     -0.027331     -1.399022
O      13.72460      5.62366      8.59595        -0.260780      0.858795      1.223498
O       1.88359      9.83503      0.42818         0.114617     -0.323678     -0.059317
O       1.86069      9.64186     12.90566         0.544574      0.082118     -0.492185
O      13.46112      9.86804      0.39509         0.377282     -0.336001     -0.839574
O      13.49841      9.74924     12.78565         0.268547     -0.179729      0.313089
O       1.88360      9.79713      4.47616        -0.117892     -0.136519      0.675710
O      13.65029      9.74278      4.64650        -0.167484      0.158520      0.317448
O       1.89329      9.70507      8.85177         0.183958      0.005638     -0.652084
O      13.66158      9.69959      8.62807        -0.242683      0.178640      0.799564
O       5.85590      2.03624      0.40384        -0.128786     -0.443631      1.305962
O       5.71202      1.94653     12.84556         0.093680      0.224266      0.218060
O       5.97960     13.84134      0.38587        -0.597251     -0.475977      0.742547
O       5.81008     13.69542     12.81112         0.166269     -0.181791      0.789728
O       5.68273      1.91908      4.62096         0.365486      0.327387     -2.044540
O       5.59031     13.60968      4.61657         0.867519     -0.340683      0.440454
O       5.74719      1.99158      8.71153         0.267260     -0.136858      0.180884
O       5.77048     13.81003      8.71968        -0.031940     -0.265518      0.356276
O       5.94801      5.96320      0.43743        -0.325033     -0.371110     -0.039029
O       5.84282      5.80940     12.75482        -0.144550      0.283858      0.862012
O       5.83399      5.94841      4.64387         0.133873     -0.356919     -0.574193
O       5.97641      5.86709      8.71314        -0.721423     -0.124863      0.105012
O       5.79703      9.56721      0.37734         0.185440      0.324848      0.151146
O       5.82568      9.71412     12.90086         0.253620      0.301386      0.519974
O       5.66710      9.89052      4.63295         0.685738      0.181233     -1.094332
O       5.68519      9.88271      8.69000         0.082400     -0.494325      0.674304
O       9.68146      2.00728      0.32974        -0.005907      0.085607      0.614223
O       9.64771      2.04321     12.88221         0.200571     -0.445557     -0.551874
O       9.60609     13.54286      0.36266         0.272250      0.383084      0.233217
O       9.76413     13.77878     12.87327        -0.222988     -0.161621      0.017620
O       9.73765      1.91602      4.51295        -0.088093     -0.374046     -1.430638
O       9.63692     13.77379      4.59048         0.289142     -0.598412     -1.250190
O       9.75301      2.02129      8.57733        -0.441776     -0.209130      0.924437
O       9.79697     13.60184      8.76031        -0.322537     -0.330537     -1.165630
O       9.71028      5.82294      0.40586        -0.054049      0.019372      0.022623
O       9.74371      5.90764     12.77743        -0.161575      0.024286      0.467292
O       9.87432      5.85467      4.56975        -0.941695     -0.161713     -0.247457
O       9.86013      5.80224      8.58592        -0.709660     -0.018326     -0.008382
O       9.74200      9.89370      0.48631         0.058784     -0.215905     -0.114597
O       9.63503      9.69587     12.83148         0.294546     -0.002138      0.858272
O       9.67124      9.71593      4.56768        -0.066342      0.226247     -0.160211
O       9.68001     10.10418      8.84930        -0.061742     -0.679040     -1.083276
O       3.89336      2.09328      2.59303        -0.185075     -0.269893     -0.500157
O       3.88427      1.87505     14.98984        -0.006271      0.464724      0.345491
O       3.86513     13.62707      2.50016        -0.058428      0.318818      0.192792
O       3.99351     13.59997     15.07014        -1.060620      0.189349     -0.108520
O      15.56390      1.94877      2.33064        -0.261876      0.041605      0.475917
O      15.56992      1.90339     14.98950        -0.669065     -0.353600      0.060363
O      15.58132     13.62722      2.51330        -0.323141      0.243784      0.170299
O      15.58815     13.66748     14.99616        -0.320793     -0.084316     -0.014603
O       3.82641      1.95066      6.73422        -0.343615      0.282249     -0.281166
O       3.78692     13.60367      6.82519        -0.356630      0.003975     -0.619955
O      15.52807      2.03965      6.64612         0.415988     -0.326286     -0.062122
O       0.02535     13.56528      6.72093        -1.177662      0.518151      0.135017
O       3.72666      1.95337     10.75178         1.729706      0.101291      0.433392
O       3.84097     13.63245     10.93545        -0.227215      0.232213     -0.505096
O      15.57883      2.03788     10.89457        -0.558635     -0.502186      0.258457
O      15.58328     13.64632     10.88634        -1.053737     -0.207437      0.207128
O       3.91349      5.80009      2.58863        -0.294426     -0.414784     -0.143992
O       3.86615      5.82188     14.93649         0.474795     -0.319191      0.415466
O      15.49916      5.99683      2.34114         0.965613     -0.497948      0.215802
O      15.57381      5.77415     15.00954        -0.289608      0.274096      0.045837
O       3.94550      6.01166      6.70270        -0.719801     -0.759277      0.010338
O       0.00126      5.93850      6.63370        -0.148805     -0.235391     -0.228704
O       3.84935      5.83184     10.79128         0.773901     -0.240590     -0.389507
O      15.50906      5.80985     10.94419         0.696760     -0.091107     -0.682361
O       3.91726      9.74581      2.52640        -0.164866     -0.190710     -0.290781
O       3.82928      9.73999     15.02899         0.527189      0.257010      0.068885
O      15.55006      9.65661      2.42971         0.239627      0.249004      0.158198
O       0.02329      9.74860     14.89654        -1.505920      0.068935      0.465840
O       3.82443      9.84699      6.63655        -0.637997      0.155432      0.331032
O      15.58502      9.72371      6.70208        -0.211661      0.179423     -0.252981
O       3.83620      9.77866     10.98600         0.156898     -0.449657     -0.552509
O       0.02051      9.58985     10.93471        -1.365594      0.483321     -0.517123
O       7.84482      1.88316      2.49089        -1.492960      0.176318      0.438459
O       7.73600      2.01878     14.86182         0.056126     -0.193990      0.351207
O       7.73928     13.59276      2.41636         0.249391      0.286016      0.910711
O       7.75369     13.71390     14.93115         0.531561     -0.704532     -0.123798
O       7.77914      1.83377      6.58834        -0.427402     -0.038072      0.031052
O       7.78810     13.77033      6.65242        -0.049212     -0.543544     -0.101887
O       7.70145      1.97224     10.77298         0.869364     -0.132613     -0.049376
O       7.66778     13.67464     10.83324         1.085116      0.191386      0.093255
O       7.77569      5.89321      2.53837         0.568848      0.082498      0.348775
O       7.72633      5.97462     14.77373         0.356037     -0.025132      0.627244
O       7.79741      5.87490      6.58319        -0.233860     -0.173049      0.469366
O       7.80115      5.84873     10.69869        -0.213940      0.156286      0.159704
O       7.83801      9.67367      2.63106        -1.176023      0.531437     -0.385077
O       7.74940      9.78924     15.12443         0.576069     -0.412353     -0.607401
O       7.69770      9.81003      6.71417         0.805232      0.157604     -0.055551
O       7.63987      9.74287     10.87323         0.748708      0.467150     -0.453056
O      11.63529      1.90536      2.43487         0.330737     -0.016462     -0.104194
O      11.60777      1.99567     14.92734        -0.051808     -0.109829      0.225162
O      11.63048     13.57069      2.42179         0.530635      0.336207      0.453986
O      11.64745     13.57398     15.01720         0.394471      0.599338      0.008421
O      11.65487      1.84992      6.61247         0.829920      0.201639      0.018696
O      11.69941     13.71866      6.72146        -0.036450     -0.500649     -0.284890
O      11.56253      1.96707     10.80022        -0.185146      0.043505      0.123995
O      11.64850     13.54295     10.80959         0.955455      0.345519      0.061505
O      11.64591      5.75726      2.54302         0.404801      0.332931     -0.591193
O      11.68215      5.92169     14.85314         0.160380     -0.007458      0.092889
O      11.64459      5.81610      6.67499         1.099785     -0.050554     -0.004321
O      11.63075      5.91836     10.76265         0.283581     -0.402639     -0.132831
O      11.69735      9.82825      2.59488        -0.762044      0.417890      0.078855
O      11.60958      9.61190     14.97552         0.884900      0.472546     -0.392163
O      11.54770      9.64400      6.68109         0.789280      0.539929      0.248396
O      11.69183      9.76776     10.74201        -0.227908      0.336853      0.189752
O       1.87410      3.88681      2.49231        -0.138485      0.006029      0.485505
O       1.80151      3.82356     15.07342         0.965080      0.309475      0.158999
O       1.97292     15.60593      2.47352        -0.295381      0.115218      0.232868
O       1.94741     15.54278     15.03157         0.046390     -0.467183      0.476193
O      13.54853      3.93136      2.22958         0.242565     -0.619422      0.588555
O      13.66497      3.88434     15.07279        -0.467632      0.601454     -0.421462
O      13.61323      0.01185      2.63897         0.074876     -0.672508     -0.827217
O      13.49493      0.01398     14.91983         0.240254     -0.246322      0.134877
O       1.91291      4.00275      6.47590         0.264504     -0.292201      0.590352
O       1.82277      0.07907      6.66388         0.072019     -1.086127      0.013902
O      13.65344      3.82822      6.68063        -0.316836      0.530384     -0.613241
O      13.68220     15.57756      6.63139         0.106258      0.200169      0.077848
O       1.82398      3.89975     10.76201         0.175667     -0.092468      0.320292
O       1.84967     15.59435     10.78684        -0.244433      0.407473      0.559668
O      13.57224      3.87183     10.75974        -0.159675      0.425880      0.349688
O      13.63507      0.03156     10.86045        -0.192393     -1.314518      0.485320
O       2.02842      7.72342      2.41636        -0.199335      0.747655      0.136121
O       1.92755      7.69874     15.01696        -0.139928      0.528456      0.064448
O      13.55665      7.87061      2.50576        -0.375259     -0.352152     -0.240186
O      13.74690      7.81371     14.98181        -0.548456      0.084601     -0.187473
O       1.94771      7.85062      6.66286         0.053653      0.276067      0.145924
O      13.55735      7.76777      6.67515         0.256634     -0.137353     -0.067929
O       1.94041      7.62759     10.93161        -0.188386      1.571008      0.064978
O      13.58594      7.71242     10.68901         0.054165      0.889117      0.182520
O       1.91940     11.65352      2.58180        -0.168220      0.191547      0.221704
O       1.90022     11.66828     14.88647         0.146204      0.343308      0.399396
O      13.68000     11.68524      2.52365        -0.209068      0.730001      0.404161
O      13.57881     11.67986     14.85610         0.225725     -0.567248      0.065953
O       1.81786     11.71310      6.76461         0.456492     -0.310518     -0.514281
O      13.58951     11.71522      6.70487         0.029341     -0.273271      0.116982
O       1.88703     11.71483     10.88811        -0.228390     -0.569490     -0.066636
O      13.71273     11.65767     10.75907        -0.020356      0.324658      0.249262
O       5.95030      3.92359      2.46378        -0.027937     -0.777204      0.569792
O       5.83237      3.95739     14.98925        -0.160148     -0.510097     -0.184319
O       5.75716      0.04120      2.64001         0.178908     -0.100928     -0.356772
O       5.87986      0.03577     14.97479        -0.293003     -0.090697     -0.203698
O       5.85422      3.81958      6.67472        -0.156456      1.348621     -0.084964
O       5.70499     15.54029      6.59834         0.199969      0.620721      0.393888
O       5.78677      3.86836     10.89748        -0.074508      0.446205     -0.564710
O       5.75553      0.06025     10.90585         0.155027     -0.054382     -0.329441
O       5.75200      7.77001      2.56935         0.695050      0.729357     -0.266426
O       5.72271      7.80376     14.91931         0.317487     -0.188587      0.197384
O       5.83871      7.91968      6.71963         0.055298     -0.575841      0.052104
O       5.81634      7.80222     10.78703        -0.383245     -0.065718     -0.096707
O       5.67133     11.73625      2.37053         0.988997     -0.872342      0.191901
O       5.84967     11.68698     15.09976         0.042110      0.500882     -0.391671
O       5.84694     11.78477      6.83160        -0.289408     -0.815647     -0.326171
O       5.75582     11.74515     10.80751         0.042369     -0.456913     -0.030608
O       9.69507      3.82586      2.55236        -0.158603      0.615427     -0.306215
O       9.58606      3.98114     14.88705         0.362938     -0.332181      0.164317
O       9.70377     15.58339      2.48656        -0.002453     -0.068174     -0.041325
O       9.68374     15.54892     15.03372         0.458226      0.991369     -0.432896
O       9.67875      3.83578      6.57897         0.031020      0.159051     -0.004103
O       9.73665     15.56189      6.65697        -0.079113     -0.169262      0.043019
O       9.62334      3.93789     10.72649         0.340789     -0.444095      0.002646
O       9.69996      0.01766     10.75332        -0.171157      0.105050      0.099395
O       9.82598      7.80017      2.48923        -0.246035      0.364515      0.134824
O       9.71001      7.80402     15.06843        -0.302808     -0.141421     -0.249491
O       9.67576      7.73696      6.62454        -0.388436      1.232306      0.396201
O       9.66952      7.91168     10.65995         0.109534     -0.560258     -0.176444
O       9.66177     11.76548      2.48312         0.056761     -0.645166      0.809470
O       9.80001     11.67371     14.92614        -0.611349     -0.088316      0.013534
O       9.74647     11.68712      6.64312        -0.253294      0.355909     -0.130500
O       9.58347     11.79550     11.00696         0.339327     -0.647460     -0.382289
