  # total energy = -7874.43160805 
CRSYTAL
PRIMVEC
    15.6080000000000005    0.0000000000000000    0.0000000000000000
     0.0000000000000000   15.6080000000000005    0.0000000000000000
     0.0000000000000000    0.0000000000000000   16.6239999999999988
PRESSURE
-0.064507 0.301533 -0.905893 -0.112085 0.062299 -0.00036
PRIMCOORD
320 1
Pb       4.02900      3.98453      4.13328        -0.128824     -1.001958     -0.071387
Pb       4.10143      4.08296      0.16811        -0.510931     -0.385612     -0.427843
Pb       3.87091      0.03395      3.99302         0.289462      0.239491     -0.403481
Pb       3.75734     15.57272     16.60666         0.353151      0.109630     -0.027233
Pb       0.10221      3.83038      4.19892        -0.282346     -0.343273     -0.491266
Pb      15.49282      3.79938     16.59683         0.165063     -0.006010      0.417153
Pb      15.56376     15.53531      4.01051        -0.373254     -0.126826      0.057385
Pb      15.49571     15.56550     16.55376         0.101786     -0.068419      0.341543
Pb       3.62265      3.74109      8.35243         0.815649      0.721615     -0.132051
Pb       3.88955      0.08339      8.26553        -0.187213     -0.432039      0.127783
Pb      15.52933      3.77736      8.29713        -0.599201      0.502381     -0.013472
Pb       0.13758     15.58454      8.21541        -1.023081     -0.362009     -0.325789
Pb       3.89128      3.93310     12.41224        -0.615398     -0.042841      0.176770
Pb       3.83571     15.40297     12.31526        -0.060378      0.458745      0.978098
Pb      15.59849      3.80909     12.45233         0.382632      0.564028     -0.050094
Pb      15.58450      0.31993     12.65246        -0.057429     -0.777440     -0.156415
Pb       3.79115      7.87830      4.30357         0.224246      0.031134     -0.349078
Pb       3.81230      7.74417     16.60593         0.420923     -0.065926     -0.371769
Pb       0.23926      7.91016      4.27301        -0.985339      0.193959     -0.500835
Pb       0.04354      7.73286     16.61897        -0.190748      0.247936      0.353457
Pb       4.03470      7.65236      8.15974        -0.487639      0.833691     -0.106603
Pb      15.34963      7.73690      8.62930         0.103777     -0.041280     -0.418319
Pb       3.92590      7.89319     12.41763        -0.183108     -0.522050      0.333618
Pb      15.57217      7.99793     12.62084         0.087833     -0.632421     -0.530016
Pb       3.81685     11.67229      4.06727        -0.075716      0.315796     -0.007318
Pb       3.91270     11.63300     16.45862        -0.349806      0.415519     -0.017430
Pb      15.57702     11.67615      4.04302        -0.035325     -0.315969      0.450633
Pb      15.53419     11.85725     16.56394         0.374132     -0.415143     -0.013979
Pb       3.84294     11.64116      8.03809        -0.513180      0.203012      0.694972
Pb      15.58446     11.60076      8.31912        -0.295394      0.352856     -0.306270
Pb       4.05016     11.66883     12.26734        -0.366050     -0.254391      1.016152
Pb       0.24593     11.53615     12.30829        -1.261089      0.455580      0.367874
Pb       7.84892      3.69320      4.20045        -0.417624      0.243597      0.454065
Pb       7.83559      4.00404      0.11182        -0.359160      0.185406     -0.393762
Pb       7.75018     15.40908      3.98732         0.194986      0.891004      1.084946
Pb       7.90288      0.19128      0.12995        -0.569060     -0.339878     -0.523275
Pb       7.55019      3.97035      8.36932         0.655512     -0.435321     -0.375658
Pb       7.89869     15.51249      8.32654         0.017579      0.685462     -0.464740
Pb       7.64468      3.73882     12.42307         0.721969      0.584739     -0.404377
Pb       7.63266     15.56053     12.56965         0.359143     -0.282166     -0.137495
Pb       7.69105      7.85995      4.15720         0.710215     -0.084489      0.270139
Pb       7.78979      8.02482     16.57515        -0.343196     -0.707945      0.429779
Pb       7.83076      7.74647      8.24755        -0.196035      0.203061      0.061909
Pb       7.81590      7.54579     12.37041         0.032808      1.108492      0.122018
Pb       8.01192     11.70133      4.33287        -0.283657      0.303073     -0.212960
Pb       7.61061     11.70492     16.61971         0.264301     -0.384982      0.098047
Pb       7.60891     11.74718      8.08885         0.669094      0.166632      0.572651
Pb       7.66838     11.45629     12.39169         0.639887      0.404364      0.340439
Pb      11.83302      3.89502      4.41498        -0.122096      0.001816     -0.418049
Pb      11.83065      4.09434      0.16568         0.066738      0.088325      0.064728
Pb      11.52596     15.45442      4.19105        -0.186364     -0.266499     -0.164050
Pb      11.55522     15.49413      0.08963         0.851669      0.318629     -0.448959
Pb      11.76031      4.14881      8.44107        -0.044751     -0.374135      0.345072
Pb      11.62108      0.15400      8.25985        -0.186967     -0.341222      0.539358
Pb      11.84618      3.81290     12.66762         0.240807      0.268809     -1.222630
Pb      11.84671     15.53764     12.42949        -0.640046      0.396916      0.064539
Pb      11.74389      7.47144      4.04945         0.292756      1.293004      0.561369
Pb      11.39791      7.78227      0.03286         0.099884      0.116024     -0.207789
Pb      11.52679      7.95726      8.26374         0.664746     -0.576353      0.167618
Pb      11.45998      7.93127     12.70828         0.597774      0.093362     -0.499131
Pb      11.66214     11.24747      4.29143         0.137605      0.824037     -0.282433
Pb      11.81430     11.80291     16.50223        -1.020951     -0.468474      0.266926
Pb      12.05343     11.99923      8.48325        -0.743946     -0.931288     -0.335038
Pb      11.59266     11.91868     12.40220         0.110526     -0.495205     -0.507899
Ti       1.74380      1.81509      2.12002         1.639504      0.004282     -0.654142
Ti       1.97105      1.91415     14.76933         0.717006     -0.028137      1.368213
Ti       1.88718     13.52476      2.13262         0.316468      0.809000      0.518416
Ti       1.89165     13.63382     14.57420         0.921812     -0.097985      0.065205
Ti      13.48071      1.91511      2.18311         1.070006     -0.513374     -0.727765
Ti      13.48184      1.96369     14.88555         0.908573     -1.225030     -0.446567
Ti      13.51444     13.54647      2.21617         0.316030      0.679969     -0.163636
Ti      13.62034     13.58682     14.66278         0.295812      1.964248     -0.785776
Ti       1.87670      1.96473      6.30545        -0.218133      0.236600     -1.604334
Ti       1.92206     13.82390      6.09245        -0.458699     -1.973151      1.281643
Ti      13.60789      1.85878      6.25682         0.930026     -0.381285     -0.362024
Ti      13.68752     13.64590      6.18571         0.053784      0.021867      0.121777
Ti       1.94206      1.90857     10.49277        -0.209088      0.379450      2.229858
Ti       1.98575     13.48252     10.42452        -1.007570      1.007799      0.218807
Ti      13.58504      1.89461     10.45081         0.379321      1.079984      0.203168
Ti      13.73335     13.68793     10.56145         0.858122     -0.654387      0.248608
Ti       2.05772      5.71358      2.20712        -0.343106     -0.054039     -0.413285
Ti       1.79505      5.70457     14.81442         1.639657      0.200145     -0.999354
Ti      13.82670      5.83848      2.20229        -0.296396      0.593378     -0.423955
Ti      13.54283      5.98521     14.65338         0.740756     -1.403255     -1.105302
Ti       1.88883      5.91915      6.27120         0.090336      0.187957      1.154425
Ti      13.69109      5.83192      6.31790        -0.337172      0.445162     -0.102544
Ti       2.15261      5.89004     10.38063        -1.945809     -0.442104      0.563635
Ti      13.84259      5.76469     10.64737        -0.725275      0.130515     -0.693596
Ti       1.91355      9.68212      2.13300        -0.342958      0.368271     -0.621740
Ti       1.93189      9.64062     14.59363         0.158776      0.635663      0.294118
Ti      13.62398      9.68943      2.13161         0.479906     -0.414169      1.144562
Ti      13.61337      9.77669     14.60223         0.225886     -0.220793     -1.363497
Ti       1.80395      9.81734      6.42651         0.653378     -0.635886     -0.229758
Ti      13.64557      9.64514      6.29056        -0.356735      0.425631      1.172147
Ti       2.02938      9.65923     10.43187        -0.568808     -0.589849      0.484443
Ti      13.48911      9.61027     10.64043         0.240768      0.934270     -0.071673
Ti       5.81146      1.99606      2.10285        -0.446809     -0.608368      0.772451
Ti       5.91985      2.05398     14.60436        -1.855256     -1.033625      1.354515
Ti       5.83341     13.58357      2.16037        -0.690249      0.591210     -1.250351
Ti       5.95048     13.80163     14.82693        -1.350102     -0.562428     -0.025753
Ti       5.81058      1.89006      6.42829         1.530068      1.009562     -0.783679
Ti       5.73939     13.83003      6.37519         0.811558     -1.477716     -0.447820
Ti       5.85454      1.85267     10.52149        -1.010060      0.076431     -1.260013
Ti       5.91398     13.58273     10.45912        -0.342160      0.031428      0.544114
Ti       5.99797      5.86839      2.40472        -0.297166     -0.320718     -0.858926
Ti       5.88932      5.84035     14.60976        -1.113054      0.461374      0.092326
Ti       5.78417      5.80692      6.28132         0.770850     -0.268281     -0.672688
Ti       5.93786      5.88180     10.53748        -0.407626     -0.430017     -0.665771
Ti       5.73452      9.78203      2.24874         0.722106     -0.404690     -1.120534
Ti       5.77160      9.70344     14.65976         0.601240      0.192528      0.071616
Ti       5.80530      9.79722      6.25349        -0.636019     -0.436543      1.187799
Ti       5.88188      9.66403     10.43570         0.117665     -0.144207     -1.472490
Ti       9.76738      2.02747      2.19084        -0.665760     -1.079858      0.862769
Ti       9.71627      2.05943     14.64080        -0.178619     -0.921949     -1.152708
Ti       9.71527     13.53345      2.16549         0.364688      0.000767      0.579372
Ti       9.66599     13.69753     14.63284         0.267449     -0.770596     -0.592350
Ti       9.82576      1.82842      6.30968        -1.758927      0.756805      0.692272
Ti       9.85674     13.59538      6.49090        -0.915802      0.859264     -0.832385
Ti       9.61874      1.91406     10.56774         1.961734      0.384902     -1.564672
Ti       9.64649     13.63831     10.39994         2.214662      0.403845     -0.688616
Ti       9.77066      5.77705      2.30277        -0.347889      1.154029     -0.491896
Ti       9.65644      5.88210     14.46676         0.907492      0.242749      0.628749
Ti       9.70391      5.73770      6.32726        -0.077374     -0.577367      1.219344
Ti       9.90980      5.81102     10.45886         0.268433     -0.742855     -1.089725
Ti       9.62538      9.65425      2.29860         0.054023      0.299944      0.044199
Ti       9.69952      9.86692     14.61757        -0.690536     -0.005078      1.018143
Ti       9.68516      9.69454      6.40618         0.750923      0.888929     -0.741928
Ti       9.73717      9.74542     10.33216         0.220929      0.196544     -0.688251
O       1.95079      1.54624      0.32809        -0.345591      0.622290      1.060833
O       1.77122      2.02499     13.02403         0.033226      0.148800     -1.381583
O       1.67117     13.61247      0.37323         0.511202     -0.101240     -0.315671
O       2.05122     13.69771     12.80332        -0.169811     -0.418681     -0.176023
O      13.31849      1.85472      0.32385         0.642504      0.757163      0.081949
O      13.64318      1.82745     13.01797        -0.063335      0.146626      0.444859
O      13.56556     13.38289      0.31335         0.148486     -0.092219      1.170837
O      13.68795     13.87613     12.86153        -0.551626     -0.809379     -0.207090
O       1.85948      1.91845      4.50006        -0.070858      0.355977      0.277751
O       1.99770     13.62148      4.36224         0.136826     -0.039570     -0.207706
O      13.71765      2.07087      4.41540        -0.467211     -0.492767      0.081676
O      13.48311     13.71960      4.42937         0.398719     -0.374193     -0.274145
O       1.85623      2.09829      8.76237         0.082737     -0.436068     -1.704065
O       1.83477     13.64649      8.66292         0.033233     -0.082294      0.477034
O      13.68648      1.96335      8.66290        -0.158542     -0.304579      0.168848
O      13.81330     13.50273      8.75267         0.093363      0.799630      0.461832
O       2.13510      5.87399      0.41402        -0.287594      0.285941      0.583813
O       1.88363      5.64925     13.02839        -0.107910      0.045692      0.891779
O      13.50988      6.13483      0.40036         0.052255     -0.974546     -0.279625
O      13.68802      5.69289     12.78287        -0.179337      0.309360      1.292947
O       1.79301      5.77190      4.47905         0.313527     -0.174133     -0.271185
O      13.62670      5.70051      4.45322         0.404884     -0.272242      0.794614
O       2.26891      5.86571      8.58591        -0.467077     -0.327826     -0.068566
O      13.70634      5.65439      8.77346         0.073396      0.605037     -0.775243
O       1.92344      9.65719      0.30502        -0.203830     -0.015405      0.673297
O       2.08801      9.50942     12.79151        -0.430704      0.419598      0.174715
O      13.87274      9.73802      0.37269        -0.848622     -0.263836     -0.468336
O      13.62167      9.78994     12.75135        -0.363413     -0.508337      1.450414
O       1.79180      9.83731      4.61401         0.348657     -0.578302     -0.180930
O      13.85735      9.74038      4.57920        -0.495830      0.214824     -0.698772
O       1.84936      9.85795      8.70686         0.191325     -0.494923     -0.976563
O      13.51139      9.64632      8.82438         0.316126     -0.242602     -0.735745
O       5.86228      2.13416      0.33783         0.470306     -0.527858     -0.422975
O       5.82178      2.00983     12.81826         0.887740     -0.201156     -0.836100
O       5.96111     13.67971      0.29176        -0.063338     -0.315347      1.285910
O       5.90216     13.68198     13.04718         0.097514     -0.399872     -1.245147
O       5.78342      1.78875      4.65428        -0.227118      0.509263      0.130252
O       5.76970     13.68397      4.61132        -0.192677      0.029961     -0.372822
O       5.83114      1.74072      8.68545        -0.505054      0.566831      1.157576
O       5.83744     13.68647      8.75287        -0.367657      0.085427     -1.112500
O       5.93418      5.74627      0.57207         0.255200      0.035022     -0.435564
O       5.91865      5.74694     12.78119         0.171787      0.196731      0.627463
O       5.82158      5.61284      4.48417         0.347962      0.561637      0.711585
O       5.80176      5.83134      8.72223         0.118585      0.389965     -0.011096
O       5.80573      9.65992      0.41206        -0.339460     -0.163715      0.364822
O       5.90447      9.73587     12.83141         0.129304     -0.038654      0.398539
O       5.72944      9.84503      4.50149         0.100052      0.091185     -0.949478
O       5.83112      9.65672      8.64825        -0.123010     -0.113252      0.370942
O       9.57223      2.02405      0.39949         0.390667      0.168089     -0.180718
O       9.69014      1.78094     12.80292        -0.347255      0.636514      0.731757
O       9.69349     13.56156      0.37219         0.125554      0.093506      0.649211
O       9.73238     13.61284     12.78082        -0.087864      0.237609      0.623623
O       9.89157      1.74964      4.55411        -0.534252      0.351634     -1.080873
O       9.59802     13.87924      4.65296         0.598515     -0.672798     -0.389237
O      10.05143      1.99521      8.74104        -0.713608     -0.366246      0.579216
O       9.79050     13.65680      8.52870        -0.082541     -0.316303      1.429889
O       9.66397      5.84841      0.46199         0.359465     -0.161466      0.319365
O       9.86504      5.96965     12.67047        -0.436331     -0.127154      0.016755
O       9.83774      5.90833      4.58521         0.374749     -0.017418     -0.456558
O       9.91411      5.70564      8.53562        -0.576768     -0.019752      0.650144
O       9.69735      9.58951      0.52341         0.160951      0.292017     -0.777535
O       9.51648      9.74613     12.87533         0.501444     -0.274799     -1.372545
O       9.52641      9.79828      4.47839         0.400808     -0.166184      1.390891
O       9.86949      9.72331      8.49477        -0.300460      0.191130      0.564141
O       3.95483      1.82106      2.38591        -0.261999     -0.112318      0.266154
O       3.88580      1.95147     14.83520         0.128215     -0.576984      0.419254
O       3.85147     13.51746      2.29730         0.381647      0.634986      0.187398
O       3.86905     13.75212     15.07140         0.011642     -0.282391     -0.150558
O      15.49796      1.85490      2.35999         0.499443      0.162891     -0.073609
O      15.53934      1.89325     15.15810        -0.918038      0.140076     -0.461856
O      15.48014     13.54980      2.57420         0.144091     -0.070612     -0.618436
O      15.53378     13.60828     14.90608         0.544537     -0.647261      0.021401
O       3.79567      2.05557      6.76615         0.039344     -0.429459     -0.195227
O       3.75062     13.67257      6.68837         0.950307     -0.094235     -0.101129
O      15.57988      1.79413      6.58901         0.539433      0.232383      0.395904
O       0.01968     13.70110      6.29472         0.349679      0.103198      0.604184
O       3.91944      1.89797     10.84890        -0.295319      0.391192     -0.385551
O       3.94660     13.47989     10.81881        -0.175961      0.542096     -0.413709
O      15.59345      1.97280     10.88088         0.468765      0.104425     -0.223052
O       0.09652     13.45685     10.86294        -0.107994      0.347682     -0.464524
O       3.99183      5.72208      2.57833        -1.011829      0.367660     -0.126541
O       3.86610      5.92644     14.97285         1.181028     -0.432374      0.076309
O       0.12662      5.70426      2.23357        -0.308885     -0.017554      0.451190
O      15.52896      5.81193     15.13710        -0.314527     -0.222503     -0.116684
O       3.92782      5.90078      6.34918        -1.062674     -0.508419      0.559111
O      15.57164      6.08415      6.72947         0.091366     -0.830006     -0.352227
O       3.93794      5.90572     10.90714         1.014970     -0.467318     -0.107924
O       0.09382      5.83127     10.57137         0.429253      0.185741      0.358458
O       3.79575      9.76349      2.55710         0.495401     -0.405518      0.126890
O       3.84394      9.55189     14.93061         0.647711      0.230049     -0.114327
O       0.06396      9.72358      2.58086        -0.699310      0.290612     -0.617673
O      15.53393      9.71541     14.61776         0.238342     -0.103720      0.649643
O       3.80675      9.71949      6.65311         0.235364      0.484735     -0.159064
O      15.52091      9.51456      6.77505         0.027376      0.511954      0.091807
O       3.99369      9.65731     10.78031        -0.638532      0.165031     -0.027547
O       0.07722      9.61889     10.88398         0.010609     -0.004988     -0.227731
O       7.74389      2.02474      2.55963         1.419350     -0.738190     -0.603077
O       7.76792      2.07132     14.92289         0.867000     -0.143278      0.096149
O       7.74073     13.54884      2.60734         0.577869     -0.141706     -0.800191
O       7.79093     13.36237     15.00353         0.453842      1.209401     -0.494640
O       7.77201      1.76518      6.70254        -0.280636      0.666391     -0.102364
O       7.70743     13.83426      6.70121        -1.178467     -0.814732     -0.126628
O       7.73874      1.68837     10.63283        -0.028766      0.292463      0.847152
O       7.89614     13.50867     10.60177        -2.440993      0.047166      0.714579
O       7.90005      5.77449      2.84739        -0.471923     -0.079400     -0.930879
O       7.82721      5.90822     14.81547        -0.949991     -0.373309     -0.015638
O       7.76948      5.89962      6.66702         0.291162     -0.082205     -0.109270
O       7.86096      5.91513     10.72149        -1.081901     -0.228505     -0.059091
O       7.63004      9.67644      2.47071         1.182219      0.193173      0.322066
O       7.78733      9.74560     15.06947        -0.421226      0.463320     -0.361152
O       7.69757      9.80215      6.66734         0.456083     -0.230097     -0.385298
O       7.87723      9.59757     10.53545        -0.504235      0.250504      0.805709
O      11.67948      1.98687      2.31487        -1.530802      0.188174      0.777534
O      11.55644      1.75424     14.91232         0.184827      0.739591      0.074950
O      11.66242     13.61553      2.53120        -1.110835     -0.298335     -0.652125
O      11.69018     13.71756     14.91620        -1.051173     -0.821304      0.097093
O      11.72732      1.64089      6.39768         0.555632      0.715490      0.491914
O      11.70115     13.60613      6.59231         0.755660      0.263422      0.162346
O      11.75383      1.97739     10.91711        -0.008440     -0.257562     -0.086884
O      11.73515     13.68198     10.72004         0.907257     -0.572872      0.301439
O      11.72840      5.85824      2.43007        -0.418226     -0.195392      0.065866
O      11.69123      5.92754     14.76006        -0.895957     -0.407462      0.694154
O      11.81025      5.70292      6.61708        -0.663593     -0.027399     -0.498432
O      11.73826      5.46159     10.59972        -1.047045      0.560862      0.621690
O      11.69819      9.59096      2.58658         0.202246     -0.200881     -0.408120
O      11.56934      9.69519     14.89637         1.553981     -0.098833      0.080935
O      11.64150      9.82045      6.42319        -0.310678     -0.054752      0.044638
O      11.61501      9.59962     10.85276         0.045306      0.086749      0.217394
O       2.11939      3.68249      2.33541        -0.797112      1.436783      0.193129
O       1.90745      3.77221     15.42514        -0.044173      0.945327     -1.275833
O       1.85369     15.50168      2.56718         0.264326      0.325202     -0.378951
O       1.79002     15.52502     14.89619         0.352933      0.267750     -0.025706
O      13.69246      3.89173      2.24628        -0.487776     -0.158307      0.121769
O      13.52245      3.87669     15.02736        -0.275710     -0.190997      0.142258
O      13.53235     15.50760      2.17074         0.206193      0.244887      0.808706
O      13.58877     15.45302     15.18850        -0.142288      0.922245     -0.513043
O       1.72416      3.88200      6.60031         0.471939      0.600087      0.053617
O       1.99675      0.03294      6.41625        -0.082048      0.330986      0.927891
O      13.72130      3.71055      6.55530         0.094141      1.530657     -0.015718
O      13.76135     15.50767      6.54965        -0.348921      0.662768      0.493619
O       2.00494      4.00590     10.90096         0.283746     -1.137079     -0.604653
O       2.00381      0.07701     10.72821        -0.142521     -1.042520     -0.141047
O      13.71152      3.90444     10.86009         0.320486     -2.005262      0.272750
O      13.81119      0.00815     10.74700        -0.424370     -0.510931     -0.034940
O       1.95435      7.80567      2.58869         0.274257     -0.785032     -0.297494
O       1.82255      7.74365     14.96962        -0.077914     -0.066965      0.146876
O      13.85844      7.71863      2.60892        -0.428687      0.533707     -0.236016
O      13.54790      7.77548     14.67246         0.503497      1.336517      0.434337
O       2.04037      7.78715      6.49475        -0.092611     -0.614776     -0.124852
O      13.41619      7.77818      6.44392         0.528442     -0.701794      0.490789
O       2.05842      7.75991     10.67296         0.007054      0.012700      0.184435
O      13.64990      7.68581     10.86934         0.056722      0.341162      0.051800
O       1.97901     11.68853      2.47345        -0.640406     -0.813489     -0.130988
O       2.07643     11.64352     14.81805        -0.640499     -0.219426      0.095299
O      13.49701     11.55781      2.55953         0.563888      0.245494     -0.433092
O      13.58252     11.65665     14.92682        -0.175460     -0.329757     -0.220381
O       1.80723     11.65822      6.52835         0.142273      0.872212      0.563257
O      13.67793     11.77548      6.68386         0.329183     -1.119797     -0.103597
O       2.03615     11.56507     10.78919         0.200651      0.924201      0.032497
O      13.69237     11.55122     10.78296        -0.415216      1.323248      0.149946
O       5.94815      3.84169      2.54211        -0.588865     -0.041874      0.182890
O       5.79194      3.89460     14.97181         0.443136      1.565276     -0.295453
O       5.83688     15.50912      2.41597         0.170935      0.042927     -0.152441
O       6.06972      0.07038     14.93026        -0.009185     -0.073876      0.110568
O       5.89155      3.95331      6.63975        -0.286662     -0.852197      0.359262
O       5.66307      0.04169      6.73785        -0.433809     -0.691075     -0.078417
O       5.94192      3.82397     10.65877         0.094021      0.104430      0.292848
O       5.79688     15.43428     10.96465         0.413895      0.565198     -0.521187
O       5.91744      7.69741      2.65806        -0.793237      0.825767     -0.149847
O       5.91792      7.79845     15.02044        -0.251575     -0.934618     -0.547215
O       5.70928      7.88939      6.43564         0.620931     -1.242006      0.241578
O       5.87631      7.77872     10.87906         0.117204     -0.612741     -0.226631
O       5.75870     11.63724      2.26149        -0.019778      0.619103      0.685592
O       5.78586     11.60971     14.99535        -0.236178     -0.235716      0.044538
O       5.70927     11.71967      6.71069         0.461128      0.409204     -0.562644
O       5.89543     11.57063     10.73341         0.239511      0.964433      0.261500
O       9.79877      3.93666      2.61093        -0.100418     -1.406496     -0.208155
O       9.64136      3.99730     14.74828         0.699193     -1.045638      0.251259
O       9.78424     15.59968      2.48824        -0.524794      0.016516     -0.843662
O       9.61679     15.56353     14.98858        -0.626255      0.216920      0.211541
O       9.69367      3.80335      6.32755         0.292459      0.695137      0.524770
O       9.70805     15.58242      6.75148         0.633678      0.339396      0.314691
O       9.43485      3.82325     10.73007         0.394773     -0.367210      0.408205
O       9.77678     15.50661     10.55692        -0.106494      0.357006      0.606933
O       9.63467      7.79445      2.58301         0.299408     -0.692182      0.004081
O       9.69120      7.80816     14.85753         0.336109     -0.484177      0.229119
O       9.67383      7.83896      6.70088         0.232919     -0.496431     -0.504468
O       9.84602      7.68382     10.41300         0.050508      0.377371      0.829174
O       9.72455     11.64479      2.61998        -0.076681      0.546487     -0.311470
O       9.73407     11.71680     14.85335         0.474502     -0.068600      0.260700
O       9.56852     11.79127      6.55310        -0.257043     -1.637740     -0.344713
O       9.84432     11.58747     10.62304         0.010020      0.731057      0.562801
