  # total energy = -7878.65762373 
CRSYTAL
PRIMVEC
    15.6080000000000005    0.0000000000000000    0.0000000000000000
     0.0000000000000000   15.6080000000000005    0.0000000000000000
     0.0000000000000000    0.0000000000000000   16.6239999999999988
PRESSURE
-0.712993 -0.985844 -1.59398 0.048802 -0.319799 -0.015726
PRIMCOORD
320 1
Pb       3.73610      3.83622      4.15928         0.314636      0.044357     -0.675335
Pb       3.74180      3.73350     16.57380         0.074609      0.430857     -0.017479
Pb       3.93772     15.43789      4.31608        -0.510366     -0.120319     -0.394164
Pb       4.01254      0.00587      0.06238        -0.274723     -0.369087     -0.096670
Pb      15.60648      3.90430      4.15517        -0.277357      0.012733     -0.092460
Pb      15.59824      3.96244     16.62252        -0.379812     -0.420416     -0.009799
Pb       0.08830     15.59375      4.31484        -0.010935     -0.678138     -0.299372
Pb      15.59902     15.56272      0.03763        -0.301930      0.183365     -0.606558
Pb       4.06437      4.04822      8.29140        -0.435812     -0.847028      0.443437
Pb       3.88441     15.58103      8.45118         0.154660     -0.282511     -0.658699
Pb       0.11598      3.94646      8.26215        -0.985264     -0.223325      0.090061
Pb      15.58278      0.05145      8.38330         0.085664     -0.317198     -0.566438
Pb       3.95662      3.85478     12.34126        -0.086330      0.042066     -0.542327
Pb       3.94377      0.14990     12.36575        -0.122046     -0.608260      0.002576
Pb      15.50484      3.84551     12.38638         0.407872      0.073164     -0.195180
Pb      15.48528     15.52611     12.30938         0.404710     -0.225041      0.196287
Pb       3.96186      7.66366      4.22042        -0.658998      0.418167     -0.803301
Pb       3.86902      7.85118      0.05495        -0.098890     -0.121678     -0.188907
Pb      15.48452      7.71594      4.14998         0.269168      0.690916     -0.717976
Pb       0.01031      7.77875      0.01284        -0.095936      0.318424      0.277039
Pb       3.89595      7.84957      8.27906         0.326282      0.110222     -0.269863
Pb       0.19065      7.87835      8.02566        -1.054308     -1.116860      0.960239
Pb       3.76890      7.78687     12.47350         0.136003      0.283726     -0.026685
Pb       0.05266      7.73218     12.38745        -0.808763      0.529983     -0.019938
Pb       4.00076     11.58401      4.29225        -0.663949      0.423807     -0.563541
Pb       3.90691     11.64580      0.00458        -0.090656     -0.019832      0.381757
Pb       0.06713     11.65639      4.24646         0.036445      0.147961     -0.594894
Pb       0.02093     11.58740     16.56517        -0.203457     -0.041402      0.501774
Pb       3.89493     11.49202      8.36940         0.338229      0.744338     -0.254618
Pb      15.60080     11.72741      8.40108        -0.159972      0.161957     -0.722150
Pb       3.78196     11.71714     12.59406        -0.231206      0.045238     -0.015374
Pb      15.36191     11.77866     12.47610         0.466954     -0.329419     -0.144865
Pb       7.88299      4.06615      4.12815        -0.299387     -0.424319      0.189979
Pb       7.75296      3.73294      0.12766         0.275246      0.015995     -0.934106
Pb       7.90227      0.05294      4.18598        -0.629454      0.140969     -0.018217
Pb       7.80880     15.43354     16.56166         0.320842      0.063590     -0.403456
Pb       7.88767      3.94115      8.07691        -0.044041     -0.129939      0.900311
Pb       7.70493     15.60160      8.35007        -0.194830     -0.359062     -0.692801
Pb       7.80337      4.07814     12.53383        -0.355658     -0.195904     -0.276656
Pb       7.78325      0.05072     12.39634        -0.057269      0.205183      0.509201
Pb       7.78811      7.76787      4.15446         0.106636     -0.257088     -0.382463
Pb       7.85948      7.62118      0.06777        -0.560209      0.159940     -0.384473
Pb       7.67983      7.76530      8.38075         0.499185     -0.044879     -0.236517
Pb       7.66578      7.98755     12.58644         0.218067     -0.615097     -0.452996
Pb       7.76376     11.62703      4.15860         0.052683      0.293153     -0.442837
Pb       7.91042     11.54465      0.06822        -0.225430      0.484871     -0.367854
Pb       7.79514     11.57539      8.46450        -0.206317      0.587556     -0.342999
Pb       7.71362     11.80743     12.52725         0.217680     -0.509445     -0.028846
Pb      11.55664      3.96658      3.91900         0.081626      0.011349      1.344223
Pb      11.61549      3.66612     16.46806         0.322774      0.440481      0.085678
Pb      11.96217      0.13494      4.16933        -0.779735     -0.240234      0.356729
Pb      11.78778     15.58875      0.02377         0.034659     -0.157569     -0.582873
Pb      11.69545      3.62748      8.08799         0.175015      1.084952      0.342845
Pb      11.81605     15.42842      8.30900        -0.560328      0.149498      0.072265
Pb      11.52496      3.95895     12.34737         0.403455     -0.268103      0.442777
Pb      11.77311      0.06870     12.57962        -0.208482     -0.510888     -0.247012
Pb      11.65604      8.06234      4.17351         0.368338     -1.016545     -0.026812
Pb      11.73542      7.74047     16.55881         0.046919      0.054028      0.248351
Pb      11.71360      7.73252      8.27531         0.048372     -0.286988     -0.476090
Pb      11.89968      7.54893     12.39588        -0.299021      1.146859      0.474333
Pb      11.57113     12.06557      4.09291         0.409183     -0.702366      0.225229
Pb      11.64096     11.73469      0.06109         0.016595     -0.282585     -0.394130
Pb      11.51998     11.48780      8.12983         0.968173      1.170229      0.634853
Pb      11.65985     11.53070     12.53591         0.116133      0.255312     -0.219127
Ti       1.89507      1.95454      2.22292        -0.037848     -0.192084     -0.756562
Ti       1.85159      2.03038     14.54417        -0.577721     -1.165200     -0.697474
Ti       1.86694     13.74944      2.14415         0.145823     -1.046134      1.595065
Ti       1.85703     13.70996     14.68531         0.125202     -0.118273     -1.608311
Ti      13.67819      1.98958      2.25666        -0.155954      0.096556     -1.339740
Ti      13.70063      1.87566     14.58540        -0.761707     -0.198660      0.441804
Ti      13.64417     13.67990      2.15920         0.657030      0.086980     -0.289838
Ti      13.62748     13.46035     14.66663        -0.270909      1.085983      0.345965
Ti       2.00791      1.88615      6.32801        -0.217862     -0.157351      0.776253
Ti       1.93729     13.53875      6.45754        -0.385241      0.492835     -0.636735
Ti      13.69549      1.88427      6.35121        -0.347491      0.557975      1.050025
Ti      13.61296     13.55718      6.36251         0.438950      0.484366     -0.166066
Ti       1.88004      1.83362     10.50276         0.624629      0.718913      0.058485
Ti       1.98454     13.55456     10.52483        -0.410349      0.627027     -0.347610
Ti      13.55853      1.96563     10.48913         0.198204     -0.226834     -1.072798
Ti      13.47199     13.66270     10.43376        -0.040969     -1.168955     -0.079438
Ti       1.79958      5.88328      2.19311         1.132060      0.938410     -0.024993
Ti       1.95227      5.89339     14.56689         0.058133     -0.390596      0.003047
Ti      13.52400      5.80576      2.25542        -0.055590      0.886824      0.239937
Ti      13.67816      5.71280     14.66894        -0.936477      0.245547      0.396836
Ti       2.07028      5.70654      6.33566        -1.607362      0.976400     -0.847119
Ti      13.69409      5.84454      6.24207        -1.298589     -0.385892      0.103519
Ti       1.91954      5.84445     10.43854         0.034081     -0.663344     -0.478615
Ti      13.66031      5.80111     10.35286        -0.057858      0.648834      1.075484
Ti       1.93490      9.83027      2.26982        -0.938578     -0.716537      0.117118
Ti       1.91239      9.72931     14.68785        -0.413123      0.417079      0.365259
Ti      13.51552      9.82556      2.30866         1.569253     -0.676861     -0.824049
Ti      13.60406      9.58542     14.78750         0.474929      0.935777     -0.591846
Ti       2.00351      9.68156      6.30005        -0.607211      0.895238     -0.668567
Ti      13.64793      9.69273      6.31101         0.126882      0.531700     -0.048677
Ti       1.88847      9.79402     10.42340         0.032850     -0.137499      0.724210
Ti      13.65841      9.74311     10.44070        -0.137691     -0.242353     -0.166579
Ti       5.74608      1.95428      2.22350         0.044606     -0.198142      0.120599
Ti       5.80155      1.91862     14.70766         1.173318      0.441726     -0.961641
Ti       5.80256     13.66669      2.32180        -0.574107     -0.436377     -0.507581
Ti       5.70271     13.61885     14.69176         0.487217     -0.200654     -0.178097
Ti       5.77807      1.99550      6.24657         0.776287     -1.758522      1.240954
Ti       5.77453     13.60556      6.34148         0.271677      0.797897      1.633789
Ti       6.00026      2.05961     10.34519        -1.309347      0.340568      0.064446
Ti       5.86218     13.69231     10.56468        -1.072647     -0.140822     -1.942009
Ti       5.75015      5.86525      2.08914        -0.733349     -0.007906      0.007803
Ti       5.86211      5.78648     14.73137         0.189709      0.815089     -0.542231
Ti       5.82279      5.79766      6.30470         1.704980      0.812700     -0.550374
Ti       5.78952      6.05376     10.42591         1.140564     -2.348301      1.042973
Ti       5.80895      9.81293      2.25825        -0.494398      0.108747     -1.479075
Ti       5.84249      9.78310     14.69033        -0.510172     -1.143408      0.847500
Ti       5.94679      9.71012      6.37740        -1.101984      0.024601     -0.125437
Ti       5.78072      9.84952     10.65335         0.253215     -0.342789     -0.966326
Ti       9.64278      1.89627      2.19225         0.551176      0.467511      0.405255
Ti       9.70416      1.86123     14.53791         0.049659      0.226311      2.215761
Ti       9.67478     13.70023      2.26124        -0.278636     -0.267315     -1.304297
Ti       9.76881     13.58087     14.62707         0.078423      0.234108      0.944964
Ti       9.68482      1.86680      6.38261         0.266121      0.207186     -0.520115
Ti       9.63274     13.71301      6.34842         0.602375     -0.617534      0.419791
Ti       9.72507      1.90268     10.51990         0.252599      0.215070     -0.674002
Ti       9.64078     13.62955     10.51864         1.458728     -0.339443     -0.760693
Ti       9.65277      5.85285      2.04160         0.935798      0.347290      1.135913
Ti       9.69715      5.85482     14.62737         0.534730     -0.984953      1.082228
Ti       9.75188      5.91040      6.36105         0.866877     -0.191703     -0.471730
Ti       9.69482      5.90323     10.47862        -0.893298      0.195140     -0.438450
Ti       9.66668      9.75800      2.09820         0.800896     -0.184690     -0.922778
Ti       9.69438      9.65010     14.58788         0.863542      1.060016      0.200415
Ti       9.73627      9.73452      6.36221         0.022561     -0.669275      0.245267
Ti       9.85414      9.76782     10.48327        -0.316169     -0.918703      1.009859
O       1.70985      2.02118      0.40238         0.808756     -0.166585     -0.344113
O       1.86756      2.00642     12.69708         0.077442     -0.154080      1.284115
O       1.69315     13.90431      0.39135         0.390034     -0.305019     -0.938413
O       1.99788     13.47475     12.81489        -0.342718      0.506234      0.594945
O      13.56650      2.08405      0.41692         0.219957     -0.339300      0.728071
O      13.59188      1.87864     12.79701         0.247659      0.143054     -0.884245
O      13.69148     13.80614      0.30807        -0.039570     -0.015111      1.245947
O      13.41790     13.43678     12.83509         0.386770      0.529057      0.463697
O       1.99117      2.06807      4.53185        -0.325317     -0.021769      0.231025
O       2.00375     13.55625      4.66510        -0.372923      0.284836     -0.278724
O      13.76241      1.80249      4.58567         0.044137      0.086753     -0.720586
O      13.61772     13.86944      4.52938        -0.352077     -0.730096      0.739442
O       1.95237      1.76491      8.73989         0.118398      0.329679     -0.831525
O       1.92754     13.50584      8.68893        -0.063604      0.409396      0.429792
O      13.50732      1.99085      8.63260        -0.007486     -0.474021      1.164426
O      13.57945     13.61365      8.61894         0.315963     -0.147854      0.821090
O       1.84611      5.94623      0.36188         0.048038     -0.586011      0.514095
O       1.77065      6.02231     12.73639         0.553866     -0.876043      0.899275
O      13.60078      5.62227      0.49452        -0.210920      0.571851     -0.419848
O      13.68923      5.95534     12.90109         0.175401     -0.570544     -0.431491
O       2.01083      5.80281      4.50118        -0.176330     -0.823979      0.983266
O      13.49691      5.84872      4.47243         0.772304     -0.020782      0.531734
O       2.08742      5.77649      8.58262        -0.024002      0.433106      0.992543
O      13.57174      5.91594      8.64635        -0.183597     -0.160857     -0.677136
O       1.83040      9.56652      0.46081         0.481208      0.325362      0.273687
O       1.85906      9.83046     12.92195         0.166815     -0.405003     -0.429280
O      13.55097      9.61766      0.52927         0.184385      0.365222     -0.407989
O      13.88783      9.60650     13.03608        -0.627400      0.366352     -0.545275
O       1.97239      9.87338      4.52014        -0.178870     -0.063576      0.695927
O      13.57107      9.70115      4.51083        -0.200537      0.279574      0.233721
O       2.00574      9.89033      8.61310        -0.147776     -0.753370      0.293672
O      13.56276      9.79969      8.65741         0.147292     -0.222388      0.105611
O       5.74276      1.79001      0.38241         0.131113      0.598052      0.250120
O       6.10383      2.06459     12.92915        -1.204829     -0.589431      0.321037
O       5.59726     13.56189      0.52447         0.429297      0.513894     -0.295936
O       5.61329     13.60172     12.91860         0.474558      0.018717     -0.859877
O       5.78179      1.92749      4.51391        -0.114531      0.170436     -1.569252
O       5.63220     13.64781      4.57960         0.270859     -0.180209     -1.185917
O       5.94870      1.90399      8.55664        -0.445611     -0.018083      0.893680
O       5.93898     13.59717      8.67376         0.120044      0.552555      1.650434
O       5.71959      5.90730      0.29852        -0.095208     -0.068159      0.844908
O       6.15627      5.79790     12.91918        -0.693021      0.088232      0.243356
O       5.91215      5.85027      4.50339        -0.068106      0.199754     -0.328823
O       5.62472      6.02972      8.64241         0.084950      0.048962     -0.602308
O       5.72100      9.99405      0.41263        -0.032296     -0.771186      0.608100
O       5.75889      9.81014     12.90834         0.271359     -0.076394     -1.340319
O       5.92879      9.75903      4.57847         0.065713      0.243078     -0.088037
O       5.75636      9.66986      8.74911        -0.346920      0.104784      0.789362
O       9.66699      2.08942      0.44291         0.077275     -0.367495     -0.253598
O       9.73883      1.79755     12.80463        -0.027538     -0.144850     -1.446571
O       9.58539     13.50541      0.42519         0.180121      0.585787      1.118317
O       9.93770     13.61998     12.86297        -0.609057     -0.136866      0.032309
O       9.67069      1.70372      4.61162        -0.118726      0.181527     -0.094865
O       9.89804     13.77412      4.50863        -0.902017     -0.081742      0.719037
O       9.76678      2.03974      8.72144        -0.070280     -0.081690      0.165205
O       9.44256     13.39702      8.73542         0.275092      0.444701      0.058823
O       9.79182      5.85212      0.30618        -0.287248     -0.276758     -0.278900
O       9.57312      5.84336     12.84466         0.004521      0.249657      0.153415
O       9.44633      5.95967      4.56083         0.158751      0.048606     -0.138758
O       9.75820      5.77355      8.68304         0.067480      0.219547      0.191254
O       9.85690      9.88133      0.25428        -0.998892     -0.356783      1.541185
O       9.67505      9.69267     12.78537        -0.037216      0.180739      0.576590
O       9.68741      9.52802      4.60672        -0.589347      0.554380     -0.999350
O       9.77524      9.77275      8.65472        -0.074945      0.049628      0.646587
O       3.78634      1.95360      2.39401         1.268978     -0.145197      0.115683
O       3.78566      1.93392     14.87707         0.102480      0.041507      0.123906
O       3.70286     13.62817      2.55338         0.976102      0.462904     -0.142226
O       3.75862     13.69982     14.89598        -0.135223      0.010511      0.951683
O       0.02399      2.11227      2.53384        -1.204642     -0.225798      0.213876
O      15.49197      2.25811     14.82683         1.188512     -0.722685     -0.010868
O      15.48514     13.72648      2.66449         0.483190      0.159297     -0.514792
O      15.49984     13.61863     14.85300         0.437693     -0.388686      0.048220
O       3.90142      2.05287      6.54346        -0.404072     -0.072438      0.405691
O       3.86789     13.72984      6.67013         0.100467     -0.378376      0.448178
O      15.56205      1.84001      6.77159         0.358146      0.412716     -0.398934
O       0.00983     13.71943      6.65364        -0.836634      0.133899      0.202309
O       3.91190      1.86708     10.74397         0.637276      0.355979      0.215576
O       3.93025     13.80297     10.61067        -0.133523     -0.065177      0.533102
O      15.57378      1.85522     10.64977        -0.649243      0.218506      0.499412
O      15.51515     13.60172     10.78265         0.197209     -0.228099      0.056201
O       3.73967      6.21259      2.38691         1.747784     -1.162129      0.054487
O       3.96822      5.82969     14.76704        -1.701191      0.036469      0.023424
O      15.46207      5.73322      2.61982         1.044631      0.202095     -0.414936
O      15.51427      5.73440     14.98766         0.813260      0.321930     -0.326213
O       3.96766      5.78075      6.38634        -1.230243     -0.443895      0.918673
O      15.60070      5.83967      6.62777         0.409787     -0.120872     -0.133279
O       3.86709      5.92718     10.82032        -0.099491     -0.278656      0.225005
O      15.53055      5.81646     10.62791         0.876763     -0.340613      0.164531
O       3.85704      9.77616      2.62787        -0.173970     -0.021067     -0.333181
O       3.80884      9.56999     14.98295        -0.071327      0.527591      0.011244
O      15.50986      9.80945      2.71299         0.248781      0.129371     -0.408575
O      15.59564      9.67381     15.07676         0.094233     -0.070466      0.457044
O       3.86353      9.70773      6.61345         0.148273      0.412823      0.158209
O      15.58875      9.61810      6.65552         0.489702      0.694490     -0.601687
O       3.83450      9.80649     10.89317         0.113605     -0.628260     -0.313557
O       0.00244      9.89719     10.66737         0.246613     -0.290770      0.024844
O       7.76883      2.11503      2.61217        -1.307351     -0.385120     -0.518122
O       7.85147      1.79746     15.00229        -1.270998      0.222853      0.279617
O       7.73076     13.63510      2.65070        -0.431917     -0.147787     -0.099034
O       7.64719     13.56981     14.88581         0.450743     -0.104575      0.041956
O       7.79209      2.01000      6.61669         0.058559     -0.778580     -0.043545
O       7.78265     13.74484      6.55497         0.006981     -0.606728     -0.471693
O       7.79999      1.95223     10.73235         0.686765     -0.151819      0.056026
O       7.73607     13.60342     10.93563         0.243530     -0.066933      0.386087
O       7.69826      5.93823      2.25062        -0.666283     -0.646537      0.332580
O       7.79856      5.62343     15.22924         0.248708      0.778364     -0.525429
O       7.70706      6.00982      6.69305         0.306789     -0.449950      0.274791
O       7.74283      5.95306     10.64162         0.177422     -0.142803     -0.040822
O       7.76397     10.02565      2.32211         0.176172     -0.447546      0.486620
O       7.74031      9.87030     14.87668         0.744433      0.104838      0.121267
O       7.74988      9.69188      6.71234         0.800609     -0.253326     -0.002747
O       7.67279      9.81757     10.78398         0.762698     -0.032190      0.141066
O      11.60641      1.94359      2.62465        -0.081675      0.209823     -0.606930
O      11.62607      1.79214     14.97130         0.369164     -0.063947     -0.171649
O      11.63040     13.79415      2.52319         0.047987     -0.039016     -0.622488
O      11.72042     13.62464     15.12111        -0.476765      0.347128     -0.318780
O      11.67290      1.96504      6.51159        -0.289372     -0.181533      0.235388
O      11.68790     13.51249      6.73613        -0.477704      0.101538     -0.410297
O      11.66778      1.88093     10.85353        -0.292644      0.258203     -0.088488
O      11.58118     13.65783     10.61521         1.022804      0.047099      0.078585
O      11.53804      5.91082      2.52544         0.248883     -0.045334     -0.267118
O      11.60561      5.95281     14.89267         0.156161     -0.285298     -0.185783
O      11.68856      5.96130      6.43475        -0.328170     -0.558815      0.715820
O      11.62541      5.84459     10.90195         0.851985     -0.274183     -0.627263
O      11.58983      9.76719      2.41715        -0.444836     -0.051154      0.720612
O      11.68097      9.73853     14.87479        -0.461087     -0.469413      0.043977
O      11.68575      9.68144      6.52078        -0.296050      0.268154      0.439519
O      11.78419      9.55789     10.87099        -1.285164      0.858853     -0.302055
O       2.03602      3.92126      2.47520        -0.272511      0.737163      0.013549
O       1.86521      3.92995     14.82439         0.707163      0.150450      0.278895
O       1.86120      0.02675      2.56114        -0.270705      0.269377      0.079611
O       1.62545      0.01901     14.75079         0.416601      0.697023      0.329748
O      13.55165      3.88444      2.68236        -0.105484     -0.059098     -0.162988
O      13.50927      3.83931     14.91834        -0.435360      0.802334     -0.289787
O      13.57023      0.12508      2.38331         0.292767     -0.672086      0.242744
O      13.74633     15.60385     14.77850        -0.433486      0.101641      0.426772
O       1.88665      3.85638      6.86802         0.680346     -0.045274     -1.318186
O       1.92914      0.05969      6.54815         0.247961     -0.330806      0.312861
O      13.65132      3.90867      6.63167         0.188686     -0.295151     -0.275203
O      13.48075     15.54200      6.72511         0.693920      0.645375     -0.307880
O       1.96687      3.89742     10.80223        -0.131834      0.468009     -0.243449
O       1.92039     15.52206     10.71955        -0.125829      0.219961      0.592110
O      13.60139      3.82538     10.73181        -0.021271      0.861534      0.243490
O      13.58891     15.56398     10.70332        -0.019650     -0.036721      0.324859
O       1.81291      7.81500      2.60374        -0.675351     -0.210283     -0.003380
O       1.88908      7.70289     14.93704        -0.172306      0.439752     -0.125021
O      13.64638      7.81665      2.56727        -0.363778     -0.667919     -0.135726
O      13.63577      7.75382     15.10875        -0.062846     -1.062089      0.047023
O       1.95533      7.67592      6.44997         0.367195      0.928487      0.736851
O      13.64464      7.82044      6.53543         0.114371     -0.649832      0.486905
O       1.90785      7.78670     10.73292         0.013276      0.652714     -0.282031
O      13.71648      7.78837     10.82373        -0.126371     -0.445006     -0.318811
O       1.83722     11.73456      2.32595        -0.256315     -0.014890      0.293367
O       1.81485     11.70817     15.07691         0.646419     -0.336498     -0.253837
O      13.55969     11.80896      2.35693        -0.373704     -0.110657      0.486832
O      13.64031     11.63317     15.15107        -0.107057     -0.013379     -0.560571
O       1.75563     11.66263      6.63024         0.641094     -0.504988      0.145243
O      13.74297     11.65541      6.54220        -0.114884      0.309139      0.028622
O       2.05331     11.68548     10.75911        -0.145144     -0.050161     -0.088037
O      13.50961     11.62800     10.94555         0.224802      0.108066     -0.698993
O       5.57865      3.92772      2.35419         0.487932      0.562304     -0.062372
O       5.82990      3.86670     14.92492        -0.201465     -0.998336      0.823681
O       5.72772      0.00297      2.51575         0.187287      0.144117      0.046832
O       5.71247     15.55879     14.96164         0.094814      0.313662      0.185277
O       5.89979      3.84893      6.59409        -0.146740      1.625722      0.215913
O       5.83820     15.57508      6.58071        -0.133505      0.509695      0.231018
O       5.86212      3.98235     10.54061        -0.527101     -0.702674      0.605351
O       5.99080      0.06786     10.87698        -0.552574     -0.520945     -0.391822
O       5.85464      7.98051      2.46260         0.163739     -1.732328      0.043319
O       5.93344      7.83229     14.92304         0.101193     -0.449455      0.186565
O       5.73139      7.78087      6.61985         0.036481      0.357498      0.067138
O       5.85171      7.77299     10.99454        -0.608278      1.748813     -0.314192
O       5.71194     11.72524      2.58591         0.300503      0.722304      0.687216
O       5.56476     11.61394     14.97739         0.188701      1.593948     -0.294419
O       5.83221     11.69303      6.67481        -0.048575     -0.588949     -0.190071
O       5.80885     11.75538     10.82966        -0.209841     -0.289233      0.092232
O       9.61600      3.95652      2.52611         0.109656      0.074989     -0.239729
O       9.75584      3.79033     14.86802        -0.036793      0.370897     -0.342415
O       9.41581      0.03958      2.30615         0.539730     -0.655636      0.139051
O       9.69439     15.48690     15.01955         0.049959      0.096756      0.020831
O       9.61667      3.91288      6.52596         0.459125     -0.174900     -0.024632
O       9.71867     15.49492      6.85682         0.208091      1.070434     -0.383321
O       9.67120      3.91578     10.97164         0.304662     -0.446587     -0.744036
O       9.71237     15.51069     10.70447        -0.573174      1.326427      0.227483
O       9.48031      7.83393      2.20245         0.338924      0.634723      0.659993
O       9.57111      7.78585     14.97669        -0.032443      0.045562     -0.250409
O       9.84288      7.74565      6.71036        -0.897177      1.112713      0.330606
O       9.75660      7.84218     10.69307        -0.274863     -0.103040     -0.057994
O       9.66047     11.73965      2.53208         0.594378      0.094375      0.452868
O       9.83532     11.69318     15.04733        -0.560350     -0.047773     -0.957536
O       9.70468     11.62546      6.64532        -0.390044      0.282527     -0.652085
O       9.81364     11.69192     10.86902        -0.365705     -1.062200     -0.006254
