  # total energy = -7882.23718266 
CRSYTAL
PRIMVEC
    15.6080000000000005    0.0000000000000000    0.0000000000000000
     0.0000000000000000   15.6080000000000005    0.0000000000000000
     0.0000000000000000    0.0000000000000000   16.6239999999999988
PRESSURE
-1.25783 -0.8629 -0.919982 -0.284112 0.242155 -0.121845
PRIMCOORD
320 1
Pb       3.97501      3.82761      4.11105        -0.508089     -0.018486     -0.240910
Pb       4.05787      3.99694      0.09677        -0.677254     -0.161826     -0.238215
Pb       3.91303     15.60709      3.98219        -0.144488      0.205087      0.181974
Pb       3.82914     15.56994     16.57150         0.238378      0.156200     -0.149404
Pb       0.04874      3.85157      4.12547         0.194323      0.077299     -0.051655
Pb      15.57234      3.78170     16.60594        -0.106063      0.642093     -0.202947
Pb      15.56099     15.48914      3.99804         0.494417      0.169083      0.563972
Pb      15.57378     15.58172     16.57652         0.015206      0.075317     -0.385423
Pb       3.72898      3.75485      8.27090         0.177062      0.124188     -0.156333
Pb       3.84099      0.00566      8.16348         0.666618     -0.619252      0.049856
Pb      15.46689      3.81747      8.27986         0.481550      0.334860     -0.187012
Pb      15.58328     15.55900      8.21057        -0.103816     -0.164939      0.322151
Pb       3.76897      3.87783     12.49175         0.913648     -0.385397     -0.657976
Pb       3.84848     15.50514     12.50562         0.386111      0.288414     -0.393233
Pb       0.07931      3.99446     12.53189        -0.886493     -0.223414      0.184923
Pb       0.05784      0.19152     12.68228        -0.240203     -0.637123     -0.876935
Pb       3.82302      7.88904      4.09396         0.606889     -0.159040      0.050640
Pb       3.87427      7.75915     16.53003         0.155715      0.206443      0.242788
Pb       0.01226      7.86650      4.18900        -0.226828      0.166409     -0.253618
Pb      15.58279      7.75839     16.53356         0.472022     -0.435158      0.478796
Pb       3.84151      7.70891      8.29960         0.003063      0.073052     -0.845024
Pb      15.30413      7.71021      8.58677         0.898632     -0.005800     -0.261304
Pb       3.94224      7.79566     12.38720        -0.102032      0.086932      0.193061
Pb      15.51279      7.87640     12.54724        -0.028543     -0.219966     -0.532394
Pb       3.82405     11.71766      4.01340         0.168986     -0.354618      0.225590
Pb       3.82875     11.72870     16.57275         0.266288     -0.332151     -0.234039
Pb      15.52709     11.65094      4.01973         0.316301     -0.189812      0.023443
Pb      15.54854     11.75789     16.55757         0.154102     -0.017644     -0.031626
Pb       3.83246     11.76959      8.22570         0.178756     -0.077224     -0.233806
Pb       0.00505     11.65591      8.24335         0.533156      0.022075      0.321125
Pb       3.92506     11.62973     12.33807         0.144150      0.089820      0.186906
Pb       0.13685     11.67498     12.43657        -0.213075      0.158958     -0.116637
Pb       7.77447      3.69215      4.16958         0.558439      0.181631     -0.289539
Pb       7.78936      4.01231     16.57897         0.607772     -1.259056      0.491148
Pb       7.70968     15.51361      4.11040         0.618601      0.087244     -0.473182
Pb       7.81842      0.15379      0.02807        -0.133012      0.030277     -0.205148
Pb       7.68667      3.85961      8.38954         0.314305      0.017741     -0.217877
Pb       7.87005      0.01796      8.23408        -0.549441     -0.596081     -0.192196
Pb       7.78862      3.70880     12.40961        -0.015578      0.444412      0.202880
Pb       7.68309     15.54447     12.45709        -0.132252      0.358614      0.032134
Pb       7.80691      7.84024      4.18406        -0.157170     -0.064594     -0.331037
Pb       7.63896      7.80517     16.58772        -0.171105      0.130246      0.121851
Pb       7.82650      7.71668      8.19927        -0.040897      0.413078     -0.008304
Pb       7.73002      7.70889     12.43446        -0.056297      0.217606     -0.381145
Pb       7.88126     11.74056      4.21238         0.362088     -0.226559     -0.102033
Pb       7.65905     11.79487     16.56268         0.130464     -0.349145      0.098080
Pb       7.78266     11.75237      8.24898        -0.007869     -0.065993     -0.152081
Pb       7.75597     11.61405     12.39092        -0.087430     -0.103036      0.020893
Pb      11.87012      3.79154      4.30906        -0.787788      0.091411     -0.233746
Pb      11.74249      4.05000      0.19365         0.002283     -0.494976     -0.428654
Pb      11.59719     15.44143      4.12535        -0.316388      0.139183     -0.056152
Pb      11.59432     15.53083     16.58358         0.141729      0.110232      0.195283
Pb      11.73802      4.09572      8.47054        -0.465301     -0.132531     -0.668966
Pb      11.69456      0.16748      8.34176         0.385435     -0.419783     -0.030407
Pb      11.78386      3.83345     12.53193        -0.386171      0.289987     -0.154220
Pb      11.58673      0.05075     12.41896         0.295415     -0.192577     -0.428516
Pb      11.77694      7.78717      4.21506        -0.222894     -0.085314     -0.330674
Pb      11.58228      7.81737      0.00247         0.047174     -0.079424     -0.166587
Pb      11.66135      7.81198      8.35466        -0.553368     -0.347437     -0.266129
Pb      11.48306      8.01055     12.60675         0.743687     -0.244035     -0.256295
Pb      11.85715     11.38340      4.20216        -0.716688      0.632894     -0.428072
Pb      11.63057     11.69108     16.52094         0.220307     -0.441186      0.313112
Pb      11.86767     11.92290      8.53292        -0.584382     -0.329111     -0.264187
Pb      11.57420     11.81816     12.41462         0.160709     -0.162774     -0.149693
Ti       1.94416      2.00323      2.13795         0.401092      0.232541      0.545869
Ti       1.98388      2.03441     14.63957        -0.119448     -0.269204      1.886312
Ti       1.95375     13.65769      2.10409        -0.653942     -0.000524      0.475402
Ti       1.92197     13.68335     14.59196         0.037329     -1.245569      0.255084
Ti      13.69357      1.86561      2.26854        -0.628920      0.833904      0.014489
Ti      13.59906      1.88388     14.61684         0.625680      1.633850      0.396739
Ti      13.61954     13.64443      2.17192        -0.336059     -0.866378     -0.015126
Ti      13.59955     13.60891     14.60876         0.550884     -0.570539     -0.401085
Ti       1.93807      1.76115      6.27543         0.378318      1.412531     -0.284511
Ti       1.87350     13.56010      6.31611         1.070001      0.088709      0.562891
Ti      13.64986      1.89861      6.38620        -0.080824     -0.157567     -0.811611
Ti      13.65027     13.56238      6.37496         0.004390      1.013506     -0.057792
Ti       2.00952      1.88862     10.52835        -0.332221     -0.118967      0.978823
Ti       1.97212     13.68681     10.55115        -0.444079      0.068691     -0.688669
Ti      13.73884      1.95808     10.62897        -0.486912     -0.823261     -1.036090
Ti      13.74491     13.70758     10.57463        -0.249732      0.501018      0.395214
Ti       1.88708      5.92423      2.26255         0.214812     -1.103500     -0.963985
Ti       2.05732      5.78628     14.55023        -0.850294      0.902519      2.015963
Ti      13.57312      5.79216      2.26322         0.506338      0.100670     -0.544842
Ti      13.71931      5.83201     14.72068        -0.303660     -0.961403     -0.852900
Ti       2.02790      5.72415      6.33457        -0.716441      0.186557      1.465559
Ti      13.78522      5.85344      6.36847        -0.852500     -0.425614      0.000640
Ti       1.83787      5.82112     10.56569        -0.121591     -0.421388     -1.556917
Ti      13.55705      5.81937     10.62151         0.438660      0.735621      1.229185
Ti       1.97838      9.79057      2.16897         0.030711     -0.875064      0.503717
Ti       1.93864      9.71305     14.71483         0.373578      0.468031      0.017039
Ti      13.61759      9.68005      2.09508         0.164897     -0.016452     -0.233326
Ti      13.71974      9.66112     14.70297        -1.324671      0.833649     -0.161893
Ti       1.97963      9.60413      6.32043        -0.184979      1.211859      0.055371
Ti      13.68809      9.73081      6.51180         0.083893     -0.571266     -1.086988
Ti       1.95612      9.70831     10.45061        -0.294027      0.113220      0.627422
Ti      13.70698      9.81852     10.54896        -0.389223     -0.487374      0.714663
Ti       5.88775      1.96294      2.16053        -0.132345     -0.767104      0.348074
Ti       5.79819      1.86876     14.71240         0.905658      0.440945      0.686971
Ti       5.86957     13.54942      2.18132        -0.053381      0.297997      0.463408
Ti       5.81100     13.63564     14.57479         0.062265     -0.152609     -0.248024
Ti       5.89203      1.86683      6.28348        -1.482842     -0.402536     -0.578295
Ti       5.85631     13.56550      6.23192        -0.121101      0.753028      0.846790
Ti       5.83535      1.96524     10.49228        -0.211532     -0.716479      0.079002
Ti       5.84819     13.62486     10.50636        -0.192905      0.205700     -1.239170
Ti       5.80869      5.85635      2.15233         0.130163      0.705002      0.746959
Ti       5.90332      5.72594     14.62436        -0.355350      0.964063      0.324553
Ti       5.84325      5.69446      6.32327        -0.222078      1.215169     -0.379743
Ti       5.73637      5.83582     10.44109         0.883123     -0.864429      1.961833
Ti       5.95500      9.73401      2.24359        -0.677103      0.455029     -0.425104
Ti       5.87097      9.76310     14.59646        -0.792387     -0.342279     -0.093736
Ti       5.86318      9.66861      6.32318        -0.195578     -0.161549     -0.800203
Ti       5.80736      9.70196     10.34130         0.904142      0.697659      1.057774
Ti       9.84994      1.90469      2.24910        -0.542510      0.161199      1.572530
Ti       9.81976      1.86049     14.66334        -1.736873      1.401299     -0.810115
Ti       9.76806     13.53712      2.11208        -0.323775     -0.293522      0.461126
Ti       9.72416     13.58656     14.67279        -0.631191     -0.059489     -0.189639
Ti       9.74542      1.94512      6.44985         0.387611      0.236707     -1.741931
Ti       9.84134     13.58558      6.35587        -0.745093     -0.232932     -1.472418
Ti       9.79048      1.94876     10.48829         0.137191      0.876492      0.740011
Ti       9.67217     13.70719     10.50045         0.639628     -0.696089     -0.314770
Ti       9.69422      5.78233      2.30920         0.554786     -0.057116     -0.285397
Ti       9.76372      5.78750     14.71339         0.433535     -0.426272      0.538304
Ti       9.76754      5.79961      6.33236         0.149683     -0.031197      0.231843
Ti       9.73196      5.83973     10.63601         0.340819     -0.465299     -0.406079
Ti       9.75000      9.70656      2.11741         0.650778      0.225801     -0.151886
Ti       9.69712      9.68979     14.72029         0.220448      0.466757     -0.179501
Ti       9.81562      9.74929      6.39987        -0.265497     -0.159468      0.224419
Ti       9.69720      9.73297     10.50615         0.005773      0.606366     -0.839648
O       1.93294      2.02121      0.35875         0.021309     -0.240398     -0.208783
O       2.04795      1.88167     12.90877        -0.043197      0.217046     -0.704192
O       1.93016     13.55342      0.34490         0.060393      0.730316      0.045992
O       2.04560     13.50596     12.79280        -0.183501      0.178144      0.493486
O      13.67328      1.83950      0.50398         0.179420      0.038170     -0.961056
O      13.65922      2.09998     12.83796        -0.125265     -0.733102      0.376062
O      13.67474     13.65331      0.40537        -0.044621      0.401556     -0.169774
O      13.54804     13.55385     12.82606        -0.142297      0.087279      0.737424
O       2.00128      1.97895      4.53583        -0.284881     -0.299550     -0.447763
O       1.86885     13.61951      4.58318        -0.018550     -0.264195     -1.359303
O      13.66554      1.95515      4.58072         0.014184     -0.261057      0.575165
O      13.70553     13.51350      4.59124        -0.167464      0.135115     -0.047730
O       2.13276      1.77853      8.74534        -0.544469      0.321549      0.092172
O       1.94918     13.88306      8.73565        -0.143843     -0.563075      0.825804
O      13.73729      1.82211      8.77956        -0.012118      0.369193      0.012523
O      13.75317     13.67098      8.72600        -0.200762     -0.198234      0.685655
O       2.01387      5.91594      0.47461        -0.148698     -0.084645      0.133987
O       2.15415      5.71796     12.80685        -0.455393      0.301387     -0.868022
O      13.68923      5.62034      0.42614        -0.627138      0.582431      0.480905
O      13.77009      5.75977     12.90968        -0.486710      0.149689      0.027944
O       1.88884      5.79601      4.62193         0.038438     -0.018048     -1.569827
O      13.61983      5.86192      4.61369         0.226570     -0.085847     -0.801107
O       1.85144      5.71578      8.70477         0.324289      0.260459      1.056899
O      13.77701      5.73769      8.83415        -0.420330      0.073843     -0.956837
O       1.92029      9.67472      0.43447         0.021929     -0.077502     -1.119438
O       1.77044      9.68543     12.92931         0.579241      0.446337      0.099959
O      13.48298      9.66206      0.30757         0.342811     -0.100582      0.697189
O      13.66911      9.55956     12.90169         0.483543      0.450922     -0.332847
O       1.90273      9.78296      4.50600         0.214165     -0.303460      0.178888
O      13.58968      9.64136      4.61748         0.077806      0.374249      1.110868
O       2.11628      9.67720      8.70598        -0.357977     -0.174191     -0.034618
O      13.89191      9.86950      8.76091        -0.651401     -0.713307     -0.591344
O       5.86770      1.86091      0.38575        -0.072713      0.069217     -0.502285
O       5.90373      1.94522     12.98018         0.080692     -0.055558     -1.265697
O       5.82039     13.55440      0.41907         0.215189      0.287662     -1.156345
O       5.75204     13.66185     12.76098         0.070452     -0.116924      0.700468
O       5.84552      1.98147      4.42053         0.237017     -0.234758      1.005677
O       5.79880     13.55927      4.43715         0.077829      0.233230      0.432732
O       5.80035      1.97592      8.71242         0.055699      0.025629     -0.275012
O       5.96516     13.54696      8.68734        -0.066987      0.267733      0.502914
O       5.79232      5.95560      0.34666        -0.101954     -0.527714      0.426896
O       5.94151      5.84236     12.84935        -0.265750      0.084526      0.091636
O       5.77908      5.85053      4.55134         0.468396     -0.211814     -0.056162
O       5.95500      5.72709      8.73979        -0.364974      0.064188     -1.332050
O       5.99590      9.77940      0.45487         0.041366      0.008647     -0.796822
O       5.83525      9.78093     12.79082        -0.075036     -0.330849      0.729853
O       5.84557      9.59629      4.43737         0.239356      0.611925      1.475872
O       5.85207      9.82955      8.58985        -0.269173     -0.207639     -0.413570
O       9.75355      1.88736      0.51256         0.261603     -0.587411     -1.727718
O       9.73415      1.90292     12.80922         0.219066     -0.266688      0.866663
O       9.64995     13.55564      0.26684         0.352986      0.341556      0.764145
O       9.85831     13.68444     12.87891        -0.032350     -0.000522     -0.453982
O       9.62882      1.85580      4.54873         0.048266      0.025067      1.811020
O       9.78771     13.50574      4.48273         0.076335      0.460788      1.432829
O       9.71396      1.97502      8.71791         0.137970     -0.064169     -1.107275
O       9.68342     13.53357      8.72178        -0.114031      0.146534     -0.183887
O      10.00040      5.55409      0.52207        -1.034641      0.839755     -0.312298
O       9.73729      5.81137     12.98370        -0.290155      0.272741     -1.270525
O       9.62513      5.75479      4.56112         0.217578      0.415950     -0.293431
O       9.96828      5.78364      8.85894        -0.688766      0.200743     -0.286032
O       9.87689      9.76980      0.30377        -0.270272     -0.366545     -0.069788
O       9.71112      9.80894     12.89657         0.070995     -0.579526     -0.088365
O       9.95690      9.58164      4.60303        -0.257037      0.245099      0.279808
O       9.74642      9.82670      8.72053        -0.125764     -0.321200      0.487559
O       3.87468      1.95318      2.46247         0.251091     -0.341136     -0.022361
O       3.90729      1.94051     15.04473        -0.121551     -0.064077     -0.080596
O       3.78975     13.62779      2.49572         0.475784      0.400921     -0.163564
O       3.88430     13.65975     14.95318         0.196716      0.049796      0.034811
O       0.04207      2.03685      2.53490        -0.954296     -0.158310     -0.046481
O       0.06595      2.01598     14.89802        -0.252265     -0.650964      0.139378
O      15.58410     13.53203      2.51155        -0.042081      0.374912     -0.207084
O       0.01344     13.59059     14.97277        -0.667897      0.409299     -0.281007
O       3.92057      1.73468      6.52536         0.016406      0.784499      0.401343
O       3.89573     13.65000      6.63816         0.590723     -0.470723     -0.111193
O       0.00536      1.82143      6.65089        -0.392290      0.377799      0.056864
O       0.02813     13.54215      6.74520        -1.048046      0.573819     -0.370458
O       3.89693      1.86154     10.92987        -0.279225      0.190825     -0.283563
O       3.91408     13.63912     10.70373        -0.395500      0.101773      0.305630
O       0.04131      1.85377     10.97412         0.056750      0.187603     -0.481695
O      15.54710     13.71352     10.99402         0.902730     -0.261771     -0.496536
O       3.89664      5.92582      2.47443         0.213027     -0.032767      0.200903
O       3.96726      5.84255     14.96147        -0.377929     -0.272710     -0.166928
O      15.52008      5.71054      2.45060         0.300312      0.022634      0.597430
O       0.04075      5.65016     14.92906         0.670125      1.132863      0.142891
O       3.91634      5.91671      6.60027         0.228918     -0.698317      0.699637
O       0.04415      5.75322      6.66586        -0.189612      0.120757      0.053142
O       3.87717      5.70839     10.67705         0.043934      0.363053      0.325534
O      15.56899      5.71614     10.92753         0.522055      0.030660     -0.168628
O       3.93274      9.65108      2.36701        -0.888888      0.052889      0.578527
O       3.86964      9.77830     14.97245        -0.228941      0.059783     -0.123809
O      15.58937      9.71875      2.49568        -0.722119      0.008374     -0.114427
O      15.59807      9.73025     15.16488         0.028158     -0.000765     -0.587828
O       3.91149      9.75956      6.56175         0.874829      0.398624      0.194004
O       0.05595      9.63048      6.63888        -0.843012      0.534677      0.216700
O       3.89497      9.71059     10.89719        -0.683977     -0.192341     -0.397858
O       0.06073      9.66758     10.81943         0.070793      0.353893      0.077968
O       7.76114      2.00279      2.50223         0.253995     -0.460705     -0.056010
O       7.85127      1.86488     15.05777         0.026209      0.001471     -0.078073
O       7.75724     13.36241      2.54655         0.143629      0.909152     -0.520123
O       7.78449     13.50144     14.74594        -0.168365      0.434414      0.354049
O       7.73873      1.95066      6.69817         0.837170     -0.180342     -0.003664
O       7.89575     13.71632      6.51221        -0.765344     -0.166554      0.276917
O       7.82778      2.03501     10.74170         0.081462     -0.313759      0.120949
O       7.72822     13.74533     10.84936         1.221019     -0.293594      0.146809
O       7.74509      5.83473      2.40099         0.398406     -0.399151      0.180169
O       7.77921      5.76675     15.15830         0.089580      0.621666     -0.737163
O       7.73553      5.94252      6.67642         0.578283     -0.806511     -0.005729
O       7.85148      5.76964     10.84005        -0.603732      0.321469     -0.035732
O       7.93909      9.85830      2.48173        -1.123487     -0.129839      0.462209
O       7.76438      9.76283     14.84829         0.052090      0.096998      0.412401
O       7.86993      9.64019      6.52261        -0.331770     -0.011697      0.303725
O       7.68982      9.62788     10.70772         0.663914      0.434253      0.361520
O      11.71143      1.76707      2.57907         0.139500     -0.427116      0.037046
O      11.70304      1.89510     14.86197         0.676877     -0.476118      0.320057
O      11.65345     13.63225      2.47473         0.916546      0.417979     -0.452187
O      11.72890     13.57766     15.02818        -0.111662      0.697676     -0.184327
O      11.65306      1.96455      6.63230         0.349422     -0.046259      0.333065
O      11.73102     13.57220      6.72069         0.251462     -0.110677      0.101603
O      11.75844      1.94574     10.79155        -0.414535     -0.223944      0.297276
O      11.66355     13.56401     10.68537         0.097847     -0.185002      0.318173
O      11.63803      5.78514      2.59607         0.746897      0.405713      0.181603
O      11.70785      5.92825     14.91096         0.018611     -0.323274      0.475682
O      11.69851      5.86458      6.68758         0.325139     -0.360925      0.169359
O      11.66405      5.99530     10.91774         1.362861     -0.441816      0.155432
O      11.70343      9.64365      2.57660         0.548473      0.040121     -0.317237
O      11.70670      9.51795     14.86421        -0.529056      0.169757      0.175476
O      11.72438      9.67449      6.86942         0.915974      0.174390     -0.468299
O      11.72371      9.75011     10.77627         0.043478      0.090442      0.128394
O       2.02207      3.89122      2.57798        -0.217601      0.381611     -0.134140
O       2.01636      3.96190     14.93370         0.398305     -1.106087     -0.123113
O       1.81778      0.04080      2.41989         0.325950     -1.026439     -0.096111
O       1.97371     15.55457     14.94626        -0.213068      0.676041      0.002007
O      13.40525      3.79617      2.60103         0.927827      0.465648     -0.355660
O      13.77068      3.86612     14.95852        -0.963653     -0.731139      0.265554
O      13.69644     15.57883      2.50345         0.167285     -0.940522      0.292619
O      13.82740     15.59542     14.82163        -0.663048     -0.111630      0.385299
O       2.04632      3.77819      6.65151        -0.149491      0.434153      0.054697
O       1.96216     15.54799      6.50338        -0.341405     -0.703985      0.547452
O      13.66207      3.88790      6.61470         0.135659     -0.530612      0.567083
O      13.54825     15.53958      6.61534         0.496429      0.220026      0.171296
O       1.86928      3.80016     10.95197         0.789748     -0.360258     -0.674571
O       1.89368     15.52140     11.09700         0.431806      0.794159     -0.791320
O      13.61458      3.85916     10.81458        -0.054758      0.430614      0.041428
O      13.58906      0.01070     10.96210         0.165856     -0.519188     -0.129907
O       1.83170      7.76039      2.63226         0.135101      0.424860     -0.135931
O       1.94866      7.78570     14.88498        -0.142052     -0.506810      0.275307
O      13.61272      7.74056      2.41386         0.145505     -0.039215      0.243187
O      13.74655      7.76692     14.92154         0.400374     -0.657435      0.580853
O       2.13850      7.81618      6.57063        -0.481351     -1.281299      0.148248
O      13.72494      7.75081      6.68944        -0.221399      0.436724      0.718455
O       1.79678      7.65862     10.85761         1.051908      1.034308     -0.228456
O      13.86425      7.76587     10.73118        -0.436954     -0.017574     -0.101625
O       1.98454     11.65817      2.40405        -0.197416      0.613239      0.245296
O       1.84908     11.76309     15.04740         0.483993     -1.083601     -0.381289
O      13.59028     11.65268      2.41650         0.081887     -0.190287      0.300163
O      13.60177     11.64970     15.00290         0.296697      0.150550     -0.297628
O       1.95484     11.67912      6.69741         0.073120     -0.072165      0.173780
O      13.65870     11.66084      6.79197         0.120364     -0.270491     -0.435754
O       1.91691     11.67312     10.69325         0.074678     -0.019973      0.271912
O      13.80737     11.65919     10.86105        -0.498668      0.373698     -0.153241
O       5.79111      3.89050      2.31919        -0.211084      0.713807      0.258555
O       5.94224      3.85669     14.94452        -0.525743      0.388008      0.388968
O       5.84938     15.58214      2.42439         0.084811     -0.434330      0.350386
O       5.88424     15.59371     14.88742        -0.172626     -1.171687      0.417345
O       5.78237      3.79964      6.54257         0.155640      0.635151      0.385490
O       5.83301     15.57934      6.58918         0.740606     -0.289732     -0.182845
O       5.84536      3.82300     10.85022        -0.069559      0.847607     -0.028745
O       5.91925      0.04225     10.85540        -0.337640     -0.377037     -0.060625
O       5.95192      7.90656      2.46944         0.140351     -2.150993      0.000825
O       5.77676      7.82619     14.99408         0.632887     -0.000174     -0.479442
O       5.86092      7.80318      6.70664        -0.226484      0.011137      0.066738
O       5.74055      7.80114     10.76262         0.098448     -1.074170     -0.148988
O       5.68122     11.68712      2.36612         0.070575     -0.080167      0.785292
O       5.78799     11.70724     14.88945         0.022745      0.052651      0.166357
O       6.02398     11.71310      6.53800        -0.439365     -0.330681     -0.016878
O       5.86214     11.66348     10.73810        -0.150890      0.170320      0.242960
O       9.90030      3.75486      2.53681        -0.659354      0.847681      0.364282
O       9.74017      3.80320     14.94897         0.094096      0.309452      0.187754
O       9.64720     15.43738      2.52287        -0.100964      0.487384     -0.164158
O       9.77382     15.53372     14.96656         0.159873      0.190694      0.300668
O       9.70489      3.90892      6.69231        -0.184256     -0.514877      0.138966
O       9.84992     15.55063      6.74364        -0.313366      0.687773     -0.050035
O       9.93996      3.88588     10.81423        -0.488535      0.161974      0.294034
O       9.84128      0.03790     10.64896        -0.337711     -0.825360      0.514910
O       9.69533      7.78074      2.36662         0.094897     -0.669948      0.275988
O       9.53685      7.71795     15.04000         0.753610      0.509448     -0.123903
O       9.82455      7.70947      6.81367        -0.301023      0.402685     -0.150701
O       9.71153      7.87132     10.88625        -0.053262     -0.587797      0.099542
O       9.83441     11.64170      2.37712         0.247673      0.066719      0.362066
O       9.80311     11.64979     14.92671         0.138681      0.022060     -0.039809
O       9.76884     11.65275      6.52659        -0.071515      0.075071      0.415003
O       9.61432     11.73586     10.88269         0.154624     -0.375695     -0.117816
