  # total energy = -7879.58453005 
CRSYTAL
PRIMVEC
    15.6080000000000005    0.0000000000000000    0.0000000000000000
     0.0000000000000000   15.6080000000000005    0.0000000000000000
     0.0000000000000000    0.0000000000000000   16.6239999999999988
PRESSURE
-0.016605 0.076665 0.54679 -0.242353 -0.169758 -0.050967
PRIMCOORD
320 1
Pb       3.93462      3.92688      4.14194        -0.379442     -0.613364      0.126498
Pb       3.96376      3.97667      0.04614        -0.410104     -0.347013     -0.280178
Pb       3.88511     15.59819      4.08618         0.031873      0.493192     -0.091062
Pb       3.82981     15.58334     16.59457         0.393629     -0.136525      0.339523
Pb       0.02682      3.86290      4.10565        -0.155229     -0.064191      0.504685
Pb      15.53974      3.86073     16.61568        -0.162283      0.210717      0.093761
Pb      15.54861     15.59647      4.04968         0.330842     -0.291012      0.772874
Pb      15.55152     15.56746     16.60230        -0.259721      0.386658     -0.018289
Pb       3.80371      3.87081      8.30745         0.064773     -0.421345     -0.175313
Pb       3.89017      0.01623      8.31579         0.288671     -0.218096     -0.423513
Pb      15.57213      3.85068      8.26638         0.052666      0.151762      0.400002
Pb       0.05469     15.58145      8.23776        -0.590242     -0.158259      0.038610
Pb       3.90304      3.91491     12.40246        -0.115816     -0.013714      0.038114
Pb       3.86070     15.52429     12.36280         0.132027     -0.381483      0.466300
Pb      15.57991      3.82520     12.44317         0.077128      0.373070     -0.211185
Pb      15.55429      0.11419     12.49792         0.286115     -0.544373     -0.230330
Pb       3.85655      7.80632      4.22295         0.143442      0.244937     -0.329581
Pb       3.84552      7.76191      0.00118         0.415194      0.168278     -0.165512
Pb       0.08798      7.82041      4.16181        -0.193994      0.323232      0.143940
Pb       0.00426      7.77030      0.00083        -0.221710     -0.430178     -0.244734
Pb       3.98371      7.75037      8.16527        -0.312194      0.272535      0.893848
Pb      15.51627      7.78624      8.37320         0.372740     -0.175084      0.358734
Pb       3.89821      7.82451     12.45597        -0.111007     -0.072104     -0.543462
Pb       0.00313      7.83072     12.49507        -0.721666      0.339962      0.042183
Pb       3.86801     11.68254      4.10650         0.134247     -0.258259     -0.035617
Pb       3.89938     11.63071     16.52062         0.075672      0.675208      0.241488
Pb      15.59182     11.66534      4.11350        -0.286650      0.336770     -0.000675
Pb      15.57569     11.73590     16.56393         0.017452      0.240163      0.532968
Pb       3.84414     11.66322      8.20409         0.792664      0.062872      0.091486
Pb      15.57371     11.65496      8.30931        -0.154158      0.252893     -0.344395
Pb       3.96212     11.68837     12.39013        -0.460289      0.104495      0.417809
Pb       0.07175     11.61944     12.36808        -0.535409      0.039335      0.746211
Pb       7.83000      3.83951      4.15885        -0.287802     -0.185646     -0.154945
Pb       7.83528      3.94183      0.04593        -0.390697     -0.322166     -0.573278
Pb       7.80978     15.53118      4.06187        -0.300465      0.329978      0.160353
Pb       7.84693      0.07258      0.01758        -0.348473     -0.630182      0.162624
Pb       7.69606      3.92953      8.28789         0.791119     -0.133265      0.365177
Pb       7.80368     15.55455      8.31521         0.326651     -0.050795      0.179276
Pb       7.74286      3.85852     12.42145        -0.046282      0.173581     -0.086477
Pb       7.74395     15.57845     12.47569         0.129305     -0.262753      0.213214
Pb       7.75940      7.81786      4.14899        -0.376489      0.032619     -0.022781
Pb       7.84567      7.88338     16.60629        -0.715616     -0.241584     -0.228856
Pb       7.79106      7.77411      8.26458        -0.159212      0.298254      0.499724
Pb       7.85703      7.69355     12.35532        -1.263508      0.035888      0.788318
Pb       7.88547     11.68062      4.21554        -0.543577     -0.168127     -0.252189
Pb       7.75117     11.67024      0.01206        -0.185242      0.223966     -0.086416
Pb       7.70556     11.72086      8.19221         0.090183     -0.340933      0.697704
Pb       7.75125     11.59527     12.42110        -0.074750      0.722304      0.103058
Pb      11.71270      3.92718      4.19289         0.041572     -0.736641      0.608590
Pb      11.73573      3.98334      0.01992         0.166304     -0.718374     -0.266121
Pb      11.57823     15.55754      4.11045         0.827094     -0.167034      0.955475
Pb      11.62599     15.57050      0.02785         0.358302     -0.196537     -0.018879
Pb      11.75069      3.94537      8.28749        -1.166430      0.203100      0.894656
Pb      11.68141      0.04917      8.24527        -0.706337     -0.395243      0.548723
Pb      11.78751      3.85566     12.49577        -0.971054      0.109388      0.422035
Pb      11.80528     15.56497     12.43372        -0.982661     -0.017793     -0.104651
Pb      11.69536      7.62945      4.07040         0.259713      0.858727      0.288613
Pb      11.53489      7.77771     16.60340         0.452827      0.088091     -0.091695
Pb      11.63543      7.87220      8.21515        -0.213976     -0.709019      1.262867
Pb      11.63265      7.79962     12.52161         0.488244      0.219928     -0.090310
Pb      11.61986     11.54054      4.18743         0.624266      0.229198     -0.028714
Pb      11.74452     11.73288     16.56848        -0.535049      0.002530      0.105524
Pb      11.86083     11.78430      8.31585        -0.697696     -0.005067     -0.376261
Pb      11.66732     11.76306     12.42953         0.015031     -0.102429      0.007679
Ti       1.96326      2.04662      2.16769         0.030056     -0.164384      0.510499
Ti       1.93934      2.00006     14.66546        -0.429874      0.111340      0.632739
Ti       1.90430     13.73555      2.18339         0.140306     -0.751458     -0.121883
Ti       1.83421     13.65970     14.77238         1.741893     -0.309585     -1.996779
Ti      13.64137      1.88054      2.34017         0.193652      0.773110     -0.840795
Ti      13.65209      1.85129     14.59336        -0.538968      1.278916      1.328387
Ti      13.66938     13.62400      2.20338        -0.336538      0.681579     -0.798166
Ti      13.60373     13.59749     14.62836         0.305015      0.503978     -0.528190
Ti       1.88338      1.80264      6.30584         0.621320      1.061258     -0.113143
Ti       1.97611     13.60403      6.44468        -0.895283     -0.357034     -0.277912
Ti      13.52800      2.00463      6.46314         0.560595     -1.046130     -1.194962
Ti      13.59800     13.71631      6.43626         0.372036     -0.776983     -0.908260
Ti       2.02194      1.82878     10.51097        -1.064312      0.788398      1.720389
Ti       1.89673     13.54843     10.50310        -0.164011      0.643482      0.476798
Ti      13.57364      1.94950     10.41579         0.114278      0.684216      0.460381
Ti      13.65094     13.67734     10.54243        -0.098952     -0.160493      0.711056
Ti       1.83764      5.90414      2.18113         0.177189     -1.323565     -0.474138
Ti       1.98509      5.88166     14.55046        -0.940579     -0.701218      1.218602
Ti      13.55849      5.76130      2.37067         1.176816      0.092287     -1.587890
Ti      13.71940      5.85078     14.70843        -0.885310     -0.526072     -1.389009
Ti       1.93711      5.76416      6.46790        -0.725484      0.133522      0.018966
Ti      13.66300      5.88026      6.49404        -0.584799     -0.670756     -0.546755
Ti       1.69761      5.93002     10.57695         1.090666     -0.977465     -0.150657
Ti      13.46964      5.92656     10.70142         0.505375      0.049551     -0.897268
Ti       1.97918      9.78451      2.18376        -0.103218     -0.066272      0.179802
Ti       1.87120      9.73150     14.77159         0.326271      0.881618     -1.126031
Ti      13.63955      9.71626      2.00415        -0.399927     -0.065345      3.436560
Ti      13.64871      9.71147     14.80557        -0.318640     -0.081356     -1.152283
Ti       1.92761      9.67413      6.42822        -0.131252      0.015293     -0.811950
Ti      13.71312      9.67482      6.43389        -0.905303      1.104791     -1.044396
Ti       1.94323      9.73645     10.46079        -0.181247     -1.049897      0.843993
Ti      13.65200      9.78863     10.39941        -0.439123     -1.281335      0.643053
Ti       5.84264      1.95289      2.24203         0.016460     -0.522360      0.292522
Ti       5.72224      1.81389     14.79034         0.930711      0.559582      1.173734
Ti       5.77805     13.60666      2.26580         0.382996     -0.195736     -0.928017
Ti       5.82349     13.60371     14.57226        -0.322120     -0.347183      0.902503
Ti       5.82512      1.91848      6.37301        -0.280717     -0.137525     -1.469274
Ti       5.88510     13.71926      6.27955        -0.169036     -0.112513      2.699516
Ti       5.82273      1.86117     10.45481         0.790643      0.381116      0.477827
Ti       5.81686     13.60791     10.38623         1.742927      0.211417     -1.360238
Ti       5.65189      5.84797      2.20654         2.390358      0.080397     -0.377291
Ti       5.80930      5.82060     14.68474         0.564355     -0.122572     -0.206926
Ti       5.83608      5.73255      6.36748         0.213231      0.540217      1.162394
Ti       5.63950      5.84461     10.42335         1.131063     -0.023529      1.029676
Ti       5.81453      9.69195      2.15001         0.575808      0.810829      0.310276
Ti       5.78571      9.73784     14.61457         0.368674     -0.005502      1.203319
Ti       5.83550      9.72962      6.29312         0.780804     -0.953521     -0.160814
Ti       5.82821      9.76332     10.50775         0.273101     -0.422903     -1.146989
Ti       9.78058      1.93696      2.28262        -0.249198     -0.205312      0.064772
Ti       9.76518      1.84854     14.73421        -0.117892      0.966894     -0.561623
Ti       9.74716     13.58994      2.23480        -0.111295      0.210146     -0.957648
Ti       9.69980     13.57889     14.71433         0.082632      0.544060     -1.090252
Ti       9.62603      1.93361      6.49655         0.982371      0.458493     -0.203679
Ti       9.67660     13.62961      6.32694         1.305949      0.452887     -0.406715
Ti       9.67451      1.91136     10.62454         0.898532     -0.023036     -1.769885
Ti       9.62103     13.66824     10.59511        -0.019394      0.055524      0.133459
Ti       9.59151      5.78955      2.17004        -0.183504     -0.064537      1.409470
Ti       9.77255      5.84144     14.73377        -0.212532     -1.268695      0.795613
Ti       9.71911      5.89901      6.32555        -0.095630     -1.093833      1.370136
Ti       9.67124      5.89412     10.55925         0.404618     -1.114786     -0.520363
Ti       9.68210      9.63311      2.25336         0.946313      1.079428     -0.445203
Ti       9.67894      9.75821     14.63454         1.137048     -0.043769      0.824536
Ti       9.74202      9.74012      6.46658        -0.511127      0.216722     -0.609699
Ti       9.68220      9.74157     10.66304         0.385109      0.061524     -1.600688
O       1.86074      2.14731      0.41936         0.414109     -0.372130     -0.308085
O       1.80950      1.77643     12.92446         0.671393      0.262496     -1.253844
O       2.00345     13.68133      0.41409        -0.067000     -0.140115     -0.414130
O       1.93322     13.63605     12.88295        -0.030654      0.051482      0.634927
O      13.58393      1.85110      0.55748         0.347083      0.084200      0.074977
O      13.48302      1.91718     12.82478         0.532312      0.266862      0.156978
O      13.70037     13.76658      0.36413         0.041199      0.012516      0.759726
O      13.71959     13.56281     12.77505        -0.383327      0.307390      0.902624
O       2.05292      1.89016      4.56090        -0.354178     -0.087935     -0.166098
O       1.67429     13.48158      4.71335         0.599021      0.287969     -0.282582
O      13.56403      2.24740      4.67626         0.444605     -0.875206      0.056775
O      13.79231     13.65734      4.67061        -0.043827     -0.104105     -0.282398
O       2.06118      1.86288      8.80068        -0.327693      0.026930     -1.143181
O       2.04565     13.62637      8.74413        -0.206022     -0.269592     -0.149667
O      13.71353      1.97120      8.62040        -0.212456     -0.313863      0.979333
O      13.53122     13.64001      8.77344         0.092641     -0.067645      0.209756
O       1.82628      5.67160      0.37429         0.166429      0.890203      0.845126
O       2.00781      5.95961     12.81625         0.047640      0.030976     -0.585120
O      13.80355      5.68475      0.58919        -0.467378      0.401223     -0.194180
O      13.54159      5.91670     12.84748        -0.009461     -0.222923      1.030268
O       2.00130      5.90680      4.72366        -0.104264     -0.017793     -0.245202
O      13.51464      5.81905      4.68983         0.150486      0.310807     -0.191236
O       1.61707      5.93272      8.77178         0.532375     -0.359259     -0.469046
O      13.59162      5.79843      8.90695         0.161978      0.063571     -1.061390
O       2.09182      9.66294      0.40942        -0.508430      0.124648      0.231823
O       1.96283      9.92005     12.97072        -0.030349     -0.509910      0.146580
O      13.87550      9.82300      0.31263        -0.915908     -0.196287     -0.652750
O      13.83045      9.81217     13.06344        -0.489340     -0.225444     -0.263946
O       1.90018      9.56941      4.59285         0.223938      0.381162      0.103277
O      13.49384      9.64029      4.64307         0.501931      0.158265      0.320678
O       1.82817      9.65177      8.71624         0.388454      0.205517     -0.280471
O      13.69756      9.71668      8.58415        -0.347489      0.257558      1.164132
O       5.77947      1.77660      0.47720         0.124100      0.270063     -0.494544
O       5.86413      1.88471     13.09455        -0.296856      0.004534     -1.729836
O       5.67795     13.54491      0.49731         0.032560     -0.090301      0.004704
O       5.91707     13.74572     12.83267        -0.582202     -0.404562     -0.472977
O       5.93603      1.85677      4.54137        -0.450111      0.488568      0.486536
O       6.00440     13.51117      4.58297        -0.367143      0.395076     -1.578615
O       5.81977      1.85447      8.69962        -0.083844      0.313606     -0.275318
O       6.06171     13.61794      8.47196        -1.055064     -0.066086      1.823173
O       5.59407      5.82676      0.42539         0.207871      0.196583     -0.205831
O       5.64638      5.76479     12.86580         0.182778      0.320921      0.820712
O       5.76975      5.72878      4.63354        -0.043474      0.329250     -1.278743
O       5.82866      5.57088      8.67841        -0.341883      0.554147      0.226471
O       5.90923      9.89053      0.33897        -0.153166     -0.378217      0.818207
O       5.72380      9.81756     12.83204         0.049721     -0.360973      0.098731
O       5.98066      9.50281      4.49265        -0.557164      0.330706      0.724217
O       5.91595      9.82384      8.71764        -0.386000     -0.287436      0.264079
O       9.74993      1.58598      0.54708         0.224507      0.764778     -0.218134
O       9.75689      1.85375     12.93084        -0.023570      0.356699      0.458062
O       9.79897     13.64456      0.36115         0.272243     -0.122531      1.279294
O       9.77861     13.61102     12.86823        -0.193165     -0.172309      1.289863
O       9.77404      2.17042      4.71372        -0.368335     -0.430235     -0.430333
O       9.67926     13.57287      4.49320         0.024505      0.200970      0.590502
O       9.76449      1.73826      8.75402        -0.591530      0.304917      1.087448
O       9.59297     13.82216      8.83805         0.404303     -0.464667     -0.386662
O       9.77437      5.83535      0.45633        -0.202042      0.170027     -1.291931
O       9.90013      5.81814     13.02566        -0.605432      0.051133     -1.223103
O       9.59852      5.77042      4.55473         0.442868      0.101204     -0.068853
O       9.68592      6.02058      8.80555        -0.121097     -0.298193     -0.215795
O       9.75708      9.77355      0.48306        -0.158222     -0.272307      0.007066
O       9.63018      9.64577     12.87762         0.340370      0.332970     -0.284233
O       9.66590      9.69279      4.63502         0.401540      0.368910      0.217686
O       9.56011      9.55401      8.84166         0.438609      0.400933      0.255731
O       3.90930      2.00069      2.52771        -0.340423     -0.014346      0.097483
O       3.78831      1.92023     15.05796         1.118094     -0.062595      0.000778
O       3.78102     13.53580      2.71466         0.428381      0.367706     -0.094012
O       3.89374     13.26666     14.79894         0.516313      0.881721      0.292926
O       0.07472      1.92771      2.54717        -0.513752      0.093662      0.291361
O       0.01262      1.87670     14.96288        -0.368806      0.130343     -0.021921
O       0.01371     13.58564      2.53282         0.395900      0.741941     -0.053363
O       0.00291     13.68638     15.04130        -0.465210      0.095849     -0.154830
O       3.89661      1.85519      6.64077        -0.028657      0.273739      0.425704
O       3.92546     13.61350      6.65081         0.352089     -0.175814     -0.309296
O      15.59179      1.75979      6.59659         0.212086      0.395269      0.254909
O      15.56691     13.59069      6.95057         0.686973      0.256158     -0.411209
O       3.95015      1.94448     10.80173        -1.439123     -0.242554      0.422197
O       4.02840     13.61759     10.67249        -2.409888     -0.092873      0.577530
O      15.56124      2.09776     10.87664         0.401933     -0.576681     -0.508414
O      15.58066     13.67567     10.81686         0.679258     -0.286255     -0.626229
O       3.87814      5.77153      2.58796        -1.135561      0.156845      0.021862
O       3.81844      6.04017     14.99942         0.612794     -0.295134     -0.176167
O      15.60728      5.90993      2.69696        -0.117947      0.197182     -0.181628
O      15.53823      5.81889     14.87625         1.578839      0.587784      0.248817
O       3.85139      5.72163      6.78071        -0.446947      0.204381     -0.044438
O      15.50963      5.59355      6.65726         0.357464      0.748360      0.024102
O       3.80115      5.95801     10.64653         0.817536     -0.283379      0.193079
O      15.48978      5.87354     10.94393        -0.065838     -0.174412      0.258673
O       3.98321      9.65443      2.59960        -1.729926      0.376986     -0.185661
O       3.91130      9.75954     14.99569        -0.019413      0.007519     -0.240090
O       0.00355      9.66073      2.48553        -0.428030     -0.204069     -0.163533
O      15.59645      9.70741     15.07723        -0.013340      0.179431      0.187931
O       3.89650      9.62424      6.64886        -0.536721      0.089402      0.029549
O      15.57291      9.70708      6.67021         0.299015      0.544256     -0.120774
O       3.88755      9.69094     10.74456        -0.636931      0.151305      0.152246
O      15.54740      9.68025     10.79913         0.733967      0.179229     -0.055158
O       7.79783      1.87846      2.60613         0.609929     -0.183907     -0.337281
O       7.76947      1.82390     15.11897         0.124560      0.171544     -0.123452
O       7.75564     13.70810      2.35652         0.432445     -0.090631      0.512592
O       7.85235     13.65423     14.96232        -0.274833      0.070129      0.156779
O       7.78690      1.99826      6.74897        -0.213045     -0.143088     -0.113875
O       7.86861     13.56493      6.67080        -1.793534      0.188949     -0.615431
O       7.77042      1.81648     10.91351        -0.394553      0.728366     -0.182290
O       7.67450     13.58916     10.84676         1.231814      0.412892      0.166338
O       7.67120      5.87216      2.49549         1.305064     -0.071973     -0.215347
O       7.73942      5.83195     15.02688        -0.190685     -0.000726     -0.034703
O       7.70688      5.82271      6.72474         1.008711     -0.332882     -0.367794
O       7.78322      5.78799     10.93766        -0.763681      0.050481     -0.061209
O       7.80989      9.67605      2.48635         0.010026      0.075353      0.088866
O       7.89484      9.72828     15.05118        -1.059915     -0.084212     -0.168528
O       7.72489      9.60564      6.63776         0.961225      0.289214      0.109917
O       7.72735      9.67387     10.98982         0.151149      0.333747     -0.232998
O      11.77576      2.05416      2.73114        -1.306265     -0.610382     -0.686698
O      11.71772      2.06006     15.05227         0.208344     -0.489649     -0.167818
O      11.78398     13.76956      2.49831        -1.124743     -0.342576      0.048202
O      11.77636     13.57976     15.00704        -0.505586      0.527164     -0.279155
O      11.67655      1.79885      6.74660        -0.208370      0.488294     -0.142647
O      11.63684     13.68987      6.63970         0.203546     -0.373529      0.380264
O      11.63033      1.76144     10.71071         0.758637      0.373176      0.382042
O      11.66859     13.59515     10.92881         0.789488      0.123836     -0.629682
O      11.66915      5.71366      2.56880        -0.394406      0.121793     -0.140286
O      11.71270      5.64450     15.03699        -0.235605      0.705233      0.345333
O      11.61401      5.94494      6.79870         0.332740     -0.370513     -0.630587
O      11.59870      6.09797     10.93280        -0.031828     -0.906260     -0.152175
O      11.67614      9.99266      2.50077         0.417210     -0.874683     -0.551785
O      11.70421      9.67425     15.06511        -0.032764      0.256414      0.009876
O      11.66538      9.65329      6.75656        -0.625876      0.567816     -0.366250
O      11.65116      9.82298     10.88672         0.304144     -0.320056     -0.268577
O       1.92234      3.97233      2.62774         0.212256     -0.531964     -0.117468
O       2.06784      3.96435     14.74516        -0.444714     -0.516604      0.171769
O       1.99511     15.59806      2.36897         0.018251      0.435237      0.538662
O       2.02696     15.57743     15.05074        -0.252473     -0.312397     -0.051165
O      13.77157      3.88703      2.58194        -0.201774      0.120958      0.211190
O      13.85260      3.91955     15.01597        -1.147216     -1.001957     -0.340265
O      13.71209      0.01080      2.65576        -0.134228      0.049641     -0.018601
O      13.72373      0.00749     14.83798        -0.310157     -0.216166      0.122574
O       1.87631      3.76287      6.71897         0.342005      0.779275      0.164932
O       2.04427     15.52010      6.66445        -0.488535      0.059184      0.366261
O      13.51055      3.84488      6.84269         0.420081      1.088815     -0.396911
O      13.62248     15.54850      6.70366         0.302034      0.910263      0.250087
O       1.97335      4.04070     10.93569        -0.132139     -1.392397     -0.269005
O       1.97792     15.50842     10.76583         0.082263      0.973605      0.105279
O      13.38842      3.92974     10.90854         0.806403     -0.859755     -0.484867
O      13.73695      0.10522     10.87365        -0.311145     -1.387026     -0.525608
O       2.02432      7.73078      2.44385        -0.099702      0.765477      0.350264
O       1.73737      7.84084     14.92674         0.839480     -0.598449      0.271458
O      13.38689      7.82496      2.36496         0.570086      0.431061      0.143612
O      13.53805      7.72470     15.06156         0.498311      0.556217      0.394472
O       1.75714      7.83322      6.68920         0.547938     -1.711938      0.239667
O      13.71279      7.74502      6.76726        -0.141250     -0.207412     -0.244331
O       1.82595      7.81043     11.00287         0.520756      0.815328     -0.549257
O      13.58852      7.84159     10.81131         0.195641      0.748924      0.294446
O       1.88700     11.65943      2.46882         0.360608     -0.700350      0.205373
O       1.81782     11.70425     15.15773         0.129508     -0.402001     -0.298088
O      13.68960     11.84066      2.44792        -0.007294     -2.517239      0.136129
O      13.67582     11.79006     15.00585         0.211007     -1.414604      0.256132
O       1.99024     11.61987      6.77899        -0.319537      0.172868     -0.147795
O      13.61039     11.68960      6.73820         0.001361     -0.415781      0.163513
O       1.98424     11.62127     10.83230        -0.169747      0.804932     -0.531389
O      13.79768     11.60405     10.78048        -0.817826      1.402229     -0.333592
O       5.93609      3.85230      2.38488        -0.619005      0.461286      0.531295
O       5.78235      3.89347     15.10294        -0.246025      0.316167     -0.259139
O       5.72170     15.54483      2.54325         0.034010     -0.213595      0.326615
O       5.72865     15.47093     14.99960        -0.226613      0.529738      0.207600
O       5.89141      3.78572      6.62078        -0.506057      1.123003      0.290140
O       5.89500      0.03757      6.57927         0.042273     -1.787658     -0.015356
O       5.83459      3.80690     10.87762        -0.144901      0.514973     -0.160796
O       5.80147     15.56674     10.74743         0.026517      0.303329      0.131787
O       5.82531      7.80556      2.46121        -0.156483     -0.986471     -0.134953
O       5.84768      7.85589     15.14725         0.056942     -0.405261     -0.752741
O       5.79316      7.69674      6.78646        -0.106370     -0.346263     -0.657656
O       5.84624      7.81371     10.68530        -0.167289     -1.147712      0.229414
O       5.78387     11.63463      2.59709         0.266503      0.110334      0.076701
O       6.11540     11.67616     14.88028        -0.752298     -0.481800      0.042758
O       5.86294     11.53740      6.52021        -0.230278      1.571173      0.091022
O       5.90059     11.72736     10.72391        -0.377102     -0.693667      0.399120
O       9.66741      3.83781      2.29947        -0.127302      0.356684      0.548805
O       9.65414      3.82053     15.20892         0.158033      0.051532     -0.310286
O       9.81217     15.59502      2.70114        -0.402748      0.000976     -0.441817
O       9.84824     15.56288     15.03598        -0.024568     -0.016248     -0.218215
O       9.80579      3.89552      6.89808        -0.467713      0.483812     -0.654286
O       9.60965     15.53952      6.61818         0.252463      0.715524     -0.099825
O       9.72682      3.92424     10.84669         0.105606     -1.040195      0.153083
O       9.63351     15.55519     10.99963         0.289627      0.038052     -0.238586
O       9.84903      7.74807      2.41521        -0.140009      0.120513      0.412828
O       9.70816      7.74232     15.03063         0.465666      0.332744      0.134196
O       9.65485      7.77302      6.68367         0.145133      0.090196     -0.300030
O       9.60210      7.75514     10.97944         0.684681      0.945385     -0.043849
O       9.69656     11.77411      2.65252         0.083238     -0.753674     -0.578318
O       9.88468     11.65660     14.97151        -0.434130      0.034414     -0.084339
O       9.69512     11.74317      6.77811         0.478853     -1.591897     -0.384494
O       9.65086     11.67154     10.90092         0.062059     -0.152472     -0.112439
