  # total energy = -7878.62949316 
CRSYTAL
PRIMVEC
    15.6080000000000005    0.0000000000000000    0.0000000000000000
     0.0000000000000000   15.6080000000000005    0.0000000000000000
     0.0000000000000000    0.0000000000000000   16.6239999999999988
PRESSURE
-0.585429 -0.944862 -1.82684 0.181203 -0.272582 0.01383
PRIMCOORD
320 1
Pb       3.73590      3.83528      4.16987         0.650078     -0.070389     -1.287244
Pb       3.74380      3.73389     16.55680         0.208543      0.669153      0.149884
Pb       3.93302     15.44283      4.30673        -0.059011     -0.035637     -0.600540
Pb       4.01531      0.00710      0.05121        -0.203627     -0.115344     -0.139756
Pb       0.00972      3.91446      4.16585        -0.225041     -0.001326     -0.845411
Pb      15.60433      3.95433      0.00670        -0.105786     -0.182505     -0.231595
Pb       0.07840     15.58430      4.31445         0.060439     -0.391331     -0.366420
Pb      15.59852     15.56971      0.03495        -0.020847      0.232897     -0.884807
Pb       4.06855      4.03205      8.28214        -0.529647     -0.421093      0.104075
Pb       3.88625     15.54674      8.42365         0.070699      0.011048     -0.435905
Pb       0.10357      3.94050      8.26670        -0.700603      0.156758      0.305583
Pb      15.56676      0.03207      8.38861         0.349887     -0.153965     -0.413831
Pb       3.94876      3.83048     12.35179         0.212537      0.168825     -0.226260
Pb       3.95266      0.15615     12.38300        -0.027952     -0.655043     -0.020803
Pb      15.51922      3.87794     12.41911        -0.099773      0.153876     -0.334005
Pb      15.51649     15.50324     12.30356         0.184810      0.128622      0.260019
Pb       3.96979      7.66918      4.19373        -0.474247      0.203820     -0.715317
Pb       3.87575      7.85455      0.05456        -0.120700     -0.527079     -0.039991
Pb      15.47575      7.71130      4.15197         0.477434      0.397230     -0.236841
Pb       0.00327      7.77657      0.01272         0.061200     -0.141080     -0.007262
Pb       3.87270      7.84063      8.28724         0.038996      0.218220     -0.110866
Pb       0.16800      7.86406      8.04849        -0.646690     -0.954890      0.751330
Pb       3.77701      7.77980     12.46276         0.319106      0.314196     -0.377211
Pb       0.04861      7.73583     12.38243        -0.504614      0.038842     -0.087849
Pb       3.98895     11.58437      4.28549        -0.362286      0.465068     -0.360468
Pb       3.89761     11.65513      0.02723         0.241161      0.352546     -0.506727
Pb       0.06733     11.64159      4.23186        -0.134419      0.366464     -0.054633
Pb       0.01372     11.57356     16.55479        -0.020584      0.249002      0.227869
Pb       3.90051     11.51835      8.38981         0.160011      0.165927     -0.268855
Pb       0.01371     11.72779      8.39245        -0.080649      0.181923     -0.828606
Pb       3.77851     11.70684     12.57723         0.142218     -0.177675      0.330562
Pb      15.36646     11.79943     12.48791         0.492286     -0.262415     -0.145980
Pb       7.89009      4.05555      4.12803        -0.823550     -0.670318     -0.301238
Pb       7.76956      3.74530      0.12046        -0.024782     -0.043323     -0.509835
Pb       7.91233      0.05363      4.19781        -0.721392      0.302111     -0.300388
Pb       7.80845     15.44959     16.55742         0.051720      0.364788      0.036334
Pb       7.89776      3.91917      8.09899        -0.069275     -0.238174      0.200569
Pb       7.70268      0.00316      8.32290        -0.067226     -0.157898     -0.424693
Pb       7.81306      4.04578     12.54900        -0.474045     -0.138983     -0.291334
Pb       7.77394      0.03022     12.38391        -0.034255      0.561476      0.020358
Pb       7.81810      7.77021      4.16836        -0.224426     -0.205111     -0.432273
Pb       7.82733      7.60122      0.07879        -0.209819      0.219830     -0.358601
Pb       7.67949      7.75629      8.36520         0.491471      0.186937     -0.216823
Pb       7.65896      7.98924     12.57713        -0.089221     -0.348189     -0.321281
Pb       7.77279     11.61858      4.16174        -0.009487      0.393122     -0.544470
Pb       7.90439     11.57166      0.07295        -0.140046      0.237009     -0.652371
Pb       7.83198     11.58034      8.46224        -0.513920      0.313795     -0.069565
Pb       7.72380     11.82251     12.51015        -0.079915     -0.744335      0.455321
Pb      11.55740      3.94650      3.91502         0.270452     -0.277610      1.246873
Pb      11.61217      3.67007     16.49623         0.222079      0.857012      0.581388
Pb      11.94938      0.10937      4.16305        -0.934035     -0.351107      0.363697
Pb      11.78941     15.59254      0.00284        -0.082544     -0.198687      0.250376
Pb      11.68786      3.64301      8.10743         0.252168      0.991922      0.626094
Pb      11.82486     15.44861      8.32952        -0.586453      0.252456     -0.371458
Pb      11.52067      3.95504     12.34063         0.885291      0.079598      0.075661
Pb      11.73239      0.07933     12.58001        -0.020220     -0.411472     -0.939223
Pb      11.65593      8.07908      4.19206        -0.261320     -0.727032     -0.210220
Pb      11.75487      7.74158     16.56321        -0.264344     -0.115875      0.318586
Pb      11.71364      7.71970      8.30157         0.013738     -0.360178      0.004053
Pb      11.88733      7.58247     12.40518        -0.310916      0.684256      0.121267
Pb      11.59730     12.05003      4.09072         0.525749     -0.457744     -0.180969
Pb      11.61182     11.71926      0.06470         0.067459     -0.522943     -0.066047
Pb      11.51449     11.50129      8.15463         0.897300      1.185770      0.395710
Pb      11.66984     11.53319     12.54297        -0.102450      0.024455     -0.347718
Ti       1.87971      1.90711      2.20711         0.750197      0.833980      0.079930
Ti       1.85521      1.97968     14.55211        -0.456646     -0.494613      0.541640
Ti       1.85632     13.70415      2.13846         0.791068     -0.220553      1.310416
Ti       1.86331     13.66991     14.64363         0.570332      0.341341      0.121202
Ti      13.67854      1.96238      2.23750        -0.400588      0.061440     -0.351383
Ti      13.60915      1.89355     14.55600         1.182113      0.307021      0.907570
Ti      13.69765     13.70130      2.12635        -0.964720     -0.071763      1.099425
Ti      13.61299     13.48540     14.66625         0.460127      0.901959      0.369498
Ti       1.92675      1.93783      6.33373         0.535661     -0.353295      0.369464
Ti       1.93225     13.53363      6.42389        -0.339354      0.087447     -0.590978
Ti      13.70347      1.92125      6.33718        -0.638653      0.341448     -0.041851
Ti      13.63218     13.59888      6.34312        -0.234229     -0.072261      0.321257
Ti       1.90580      1.85978     10.52292         0.165485     -0.012224     -0.936639
Ti       1.99917     13.54812     10.54484         0.027426      1.327481     -0.849772
Ti      13.53630      1.95843     10.50037         0.225772      0.410989     -0.888698
Ti      13.47885     13.60483     10.46032         0.420114     -0.037299      0.877483
Ti       1.82295      5.93482      2.17565         1.062407     -0.779428      0.020165
Ti       2.00349      5.84821     14.51593         0.121036     -0.331529      2.285634
Ti      13.50469      5.84064      2.24983         0.479611     -0.365553     -0.799323
Ti      13.69115      5.77314     14.68819        -0.393859     -0.272782     -0.732307
Ti       2.03386      5.72926      6.27961        -0.751656      1.060238     -0.095589
Ti      13.70347      5.82963      6.23359        -0.826958     -0.377890      0.704938
Ti       1.94571      5.78859     10.46289        -0.458549      0.484626     -0.721669
Ti      13.60968      5.85118     10.37931         0.753494     -0.548197     -0.390907
Ti       1.90279      9.85407      2.27035        -0.033334     -1.260674      0.341236
Ti       1.90690      9.67260     14.69516         0.413819      0.776060     -0.798870
Ti      13.55360      9.78487      2.34622         0.039855      0.446942     -1.843214
Ti      13.61243      9.60532     14.78037         0.271909      0.197408     -0.577005
Ti       1.94305      9.71103      6.30376         0.224176      0.058457     -0.164861
Ti      13.60363      9.69459      6.34764         0.866764      0.655667      0.315078
Ti       1.84873      9.79000     10.48056         1.288237     -0.818178      0.323823
Ti      13.67903      9.71451     10.42020        -0.712885     -0.229715      0.563745
Ti       5.73651      1.93467      2.21201         0.851930      0.599763      0.781147
Ti       5.81696      1.94302     14.67346         0.583771      0.803998     -0.113854
Ti       5.81409     13.65027      2.31239        -0.346762      0.481518     -0.615721
Ti       5.72959     13.63770     14.69819        -0.327760     -0.590393     -0.412225
Ti       5.73511      1.98826      6.26341         0.817839     -0.862728     -1.218733
Ti       5.77558     13.60289      6.37508         0.250258      0.740507     -0.489465
Ti       5.97839      2.08874     10.35806        -0.782074     -0.832009      0.892046
Ti       5.85978     13.71342     10.60509        -1.054613      0.176061     -1.794372
Ti       5.79043      5.90774      2.08915        -1.133035     -1.225504      0.852547
Ti       5.90560      5.85513     14.70927        -1.074654     -0.798061     -1.159329
Ti       5.83417      5.84146      6.29699         0.056960      0.302436     -0.410796
Ti       5.87034      6.00330     10.40786        -0.898448     -0.243973      1.180817
Ti       5.79850      9.80651      2.25774        -0.082988     -0.603782     -0.079387
Ti       5.83781      9.72831     14.74031        -0.099649      0.680986     -1.133311
Ti       5.92751      9.72310      6.36338        -1.269496      0.112357     -0.830787
Ti       5.76676      9.88941     10.65516        -0.067385     -0.930401     -0.421636
Ti       9.67311      1.88173      2.19392        -0.864526      0.226715     -0.189266
Ti       9.72055      1.87965     14.55533        -1.337810      0.225457      0.654413
Ti       9.67297     13.65660      2.24656         0.386182      0.916870     -0.098864
Ti       9.79252     13.61715     14.62305        -0.124018     -0.456428      0.503453
Ti       9.67722      1.83438      6.39430         0.763256     -0.444065     -0.587787
Ti       9.63094     13.63740      6.30490         1.371283      0.750009      0.526966
Ti       9.76351      1.92722     10.51289        -0.563904      0.240705      0.088807
Ti       9.67359     13.62104     10.51024         1.028163      0.585384     -0.009648
Ti       9.67665      5.89534      2.06930         0.181279     -0.412436     -0.326185
Ti       9.75999      5.83777     14.60853         0.021657     -0.124764      0.876821
Ti       9.82535      5.86721      6.33350         0.290426      0.246930     -0.466129
Ti       9.65993      5.93694     10.48340         0.802136      0.036127      0.240115
Ti       9.63776      9.74146      2.11536         1.751436      0.406183     -0.884307
Ti       9.72800      9.65611     14.60565         0.075096      0.311829      0.057542
Ti       9.73594      9.76171      6.36821        -0.392432     -1.291398     -0.666378
Ti       9.78706      9.79768     10.52327        -0.116647     -1.415896      0.575437
O       1.77436      2.05177      0.42373         0.309491     -0.298190     -0.272120
O       1.86464      2.04435     12.77028         0.340116     -0.209611     -0.156151
O       1.72417     13.82868      0.37120         0.182465     -0.280718      0.210016
O       1.93798     13.52751     12.85858        -0.118703      0.152825     -0.763270
O      13.51469      1.99321      0.44602         0.115860     -0.047746     -0.410582
O      13.55691      1.99151     12.79481        -0.084019     -0.151337     -0.448558
O      13.71974     13.82120      0.36451         0.033149     -0.298399     -0.762169
O      13.42624     13.42171     12.86674         0.174566      0.403509      0.274016
O       1.97802      2.01777      4.49986        -0.551065      0.246917      0.395205
O       1.98894     13.53590      4.59692        -0.661754      0.384525      0.946739
O      13.73694      1.84329      4.50408         0.111782     -0.041147      0.904098
O      13.55040     13.78189      4.56145         0.375470     -0.344383      0.137746
O       1.86777      1.75168      8.70605         0.280773      0.497877      1.117853
O       1.90579     13.51405      8.69574        -0.027754      0.502855      0.474536
O      13.49802      1.99330      8.63333         0.209250     -0.600226      0.795641
O      13.54685     13.64550      8.70587         0.595950     -0.200752     -0.624750
O       1.90836      5.84013      0.37010        -0.215490      0.417822      0.220137
O       1.77263      6.05045     12.80336         0.438335     -1.021261     -1.624307
O      13.57235      5.68995      0.42296        -0.303222      0.705585      0.739888
O      13.62516      5.91443     12.86105         0.357068     -0.140724     -0.092274
O       2.08495      5.82319      4.48287        -0.666383     -0.687700      0.376892
O      13.60969      5.86873      4.45463         0.220202      0.077358      0.205691
O       1.99622      5.76890      8.63152         0.125762      0.405713      0.585078
O      13.63244      5.91886      8.61730        -0.309522     -0.165132     -0.242748
O       1.84837      9.59214      0.46759         0.252475      0.295140      0.317106
O       1.94799      9.82966     12.88005        -0.440484     -0.326926      0.644596
O      13.50836      9.64904      0.48552         0.303235      0.173957      0.769771
O      13.94454      9.44593     13.04595        -0.762995      0.965494     -0.539837
O       1.90887      9.85325      4.53829         0.054869      0.086850     -0.419929
O      13.54279      9.61255      4.56922        -0.044605      0.562620     -0.804843
O       1.98527      9.80727      8.65535        -0.107203     -0.221283      0.335323
O      13.59698      9.74640      8.67212        -0.091513      0.183099     -0.727917
O       5.73141      1.70931      0.41099         0.430799      0.743867     -0.908492
O       5.99916      2.14035     12.89484        -0.720995     -0.716044     -0.319606
O       5.63492     13.53848      0.43572         0.474619      0.586476      0.536175
O       5.59687     13.56902     12.90123         0.679857      0.396186     -0.550120
O       5.79532      1.97804      4.41470        -0.470597     -0.084928      1.908559
O       5.65506     13.53004      4.48090         0.227902      0.417499      1.709812
O       5.95565      1.90155      8.60163        -0.507724      0.224040     -0.421942
O       5.94894     13.70432      8.72622         0.139118      0.093853      0.551800
O       5.67653      5.96230      0.33861         0.329887      0.051854     -0.758253
O       6.09595      5.86900     12.83912        -0.378481     -0.456589      0.354783
O       5.97012      5.90963      4.51511        -0.285032      0.282577     -0.322403
O       5.58715      5.99452      8.59660         0.594811      0.100913      0.580695
O       5.76445      9.92141      0.47233         0.018592     -0.361067     -1.085982
O       5.82446      9.83811     12.87521         0.128767     -0.385152      0.360744
O       5.84523      9.77796      4.50774         0.390428      0.357885      1.192233
O       5.64973      9.67468      8.81753         0.155698      0.403375     -0.488884
O       9.62809      2.11209      0.39984         0.290694     -0.399390      0.116516
O       9.68391      1.75553     12.74667         0.223875      0.263866      1.282702
O       9.61570     13.61449      0.46834        -0.053496     -0.159120     -0.772968
O       9.94091     13.60399     12.84090        -0.336041      0.223373      0.416723
O       9.72516      1.66115      4.63028        -0.428941      0.319380     -0.338895
O       9.91313     13.77492      4.53580        -0.958109     -0.088514     -0.049096
O       9.82736      2.02580      8.76262        -0.369132      0.279008     -2.093207
O       9.38038     13.40049      8.77093         0.680445      0.225048     -0.279393
O       9.76705      5.72270      0.26612        -0.326343      0.507586      0.959908
O       9.51645      5.85987     12.80483         0.305619      0.225833     -0.016592
O       9.43782      6.02140      4.53968         0.580741     -0.030618      0.497750
O       9.77976      5.78735      8.73474        -0.293983     -0.140859     -1.029390
O       9.86120      9.89920      0.28191        -0.725076     -0.116714      0.407286
O       9.63962      9.57704     12.79645         0.220017      0.570887      0.264833
O       9.68751      9.58030      4.58480        -0.294320      0.293285     -0.247717
O       9.71495      9.74942      8.70567         0.163966      0.804429     -0.352450
O       3.87087      1.96696      2.35198        -1.870577      0.142983      0.389901
O       3.77182      1.95387     14.96382         0.172694      0.108512     -0.331221
O       3.73548     13.64974      2.58814         0.239055      0.020230     -0.710044
O       3.77249     13.66211     14.89466        -0.172433      0.148957      0.798856
O      15.55178      2.11559      2.47571         0.188571     -0.596665      0.157217
O      15.50800      2.16774     14.85809        -0.337627     -0.197282     -0.010822
O      15.47847     13.75770      2.60635         1.373504      0.072123     -0.039638
O      15.54316     13.59364     14.83943        -0.762455     -0.298914      0.199204
O       3.88050      1.99102      6.54863         0.092500      0.409262      0.340397
O       3.84325     13.69148      6.63312         0.295476     -0.110502      0.434053
O      15.60005      1.89294      6.77951        -0.786528      0.361664     -0.696816
O       0.03021     13.66964      6.70046        -0.705141      0.563917     -0.036698
O       3.92402      1.85621     10.74639        -0.109190      0.718099      0.179549
O       3.93993     13.84063     10.58849        -0.815904     -0.640845      0.644920
O      15.56119      1.83023     10.74302        -0.065745      0.267266      0.130698
O      15.46306     13.69450     10.80391         0.848489     -0.662237      0.111118
O       3.88835      6.10088      2.36683        -0.331673     -0.127629      0.515328
O       3.89570      5.80291     14.78245        -0.288871      0.164855     -0.034520
O      15.45771      5.73783      2.48548         0.261282      0.588103      0.140662
O      15.55405      5.70655     14.89728         0.076890      0.676692      0.209620
O       3.89021      5.79014      6.44642         0.243804     -0.157280      0.714933
O       0.02550      5.83041      6.53533         0.013765     -0.044803     -0.014081
O       3.84620      5.95375     10.76498         0.432141     -0.526723      0.395634
O      15.51492      5.74108     10.60394         1.009481      0.074573      0.753779
O       3.86531      9.67180      2.55172        -0.730216      0.659365     -0.174644
O       3.86902      9.67797     14.99078        -0.492949     -0.174023      0.267422
O      15.55660      9.83599      2.67519        -0.827115     -0.550803     -0.477937
O      15.58399      9.64205     15.15016         0.302039      0.190261     -0.050144
O       3.85938      9.81068      6.58533         0.324188      0.113321      0.273829
O      15.60456      9.59788      6.57923        -0.441520      0.576987     -0.051501
O       3.83519      9.77250     10.89610        -0.083928      0.151363     -0.133257
O       0.01655      9.89299     10.65162        -0.683177     -0.255490      0.347112
O       7.68256      2.14760      2.57628         0.868422     -0.520995     -0.391473
O       7.81682      1.78182     15.03501        -0.208642      0.441422     -0.337971
O       7.73826     13.69486      2.70563        -0.665193     -0.398756     -0.460018
O       7.64577     13.50861     14.85164         0.935051      0.479059      0.132236
O       7.75234      1.91812      6.57383         0.524727      0.045486      0.361200
O       7.81648     13.74607      6.52883        -1.281250     -0.500193     -0.321173
O       7.77236      1.95715     10.71031         0.459536     -0.165076      0.220536
O       7.76654     13.59161     10.97079         0.386607      0.365625      0.152761
O       7.75579      5.94916      2.30939        -0.168593     -0.368429      0.113811
O       7.67092      5.71656     15.19681         1.751925      0.443359     -0.282269
O       7.61043      5.98838      6.73532         2.230137     -0.161369      0.403842
O       7.74270      5.93493     10.62474         0.072764     -0.146173     -0.302599
O       7.84164      9.93540      2.32576        -1.841712      0.317757      0.665347
O       7.78991      9.84711     14.82659        -0.440126      0.137907      0.716153
O       7.79793      9.80402      6.61803        -0.691591     -0.502851      0.368551
O       7.70519      9.84895     10.67822         0.732226     -0.033337      0.433259
O      11.51967      1.91266      2.60117         0.720636      0.228773     -0.489886
O      11.58356      1.86163     15.02900         0.571056     -0.327328     -0.857625
O      11.64958     13.84753      2.50647        -0.231836     -0.646298     -0.351684
O      11.73531     13.66314     15.16405        -0.673862      0.108844     -0.624483
O      11.63009      2.02039      6.53585         0.873487     -0.622000      0.063654
O      11.70670     13.59296      6.64322        -0.210665     -0.593353      0.444810
O      11.65156      1.90564     10.80104         0.666380     -0.042250      0.490072
O      11.63874     13.65672     10.56133        -1.108078     -0.177265      0.489614
O      11.50741      5.93410      2.51330         1.187760      0.112859      0.000125
O      11.61210      5.98403     14.80449        -0.407689     -0.124210     -0.019220
O      11.71084      5.85153      6.43735        -0.298910      0.142831      0.365501
O      11.69782      5.79971     10.76752        -0.557359      0.393930      0.451236
O      11.52307      9.84513      2.46560         1.535376     -0.288580      0.824917
O      11.69014      9.75058     14.75684        -0.246202     -0.506389      0.371029
O      11.63052      9.73382      6.57861         0.897815      0.091479      0.332489
O      11.73144      9.63843     10.87506        -0.230542      0.677803     -0.217881
O       1.89538      3.99365      2.49599         0.357691     -0.667897      0.291098
O       1.89950      3.97540     14.85621         0.248807     -0.934199      0.086563
O       1.85941      0.02426      2.60414        -0.355808      0.021590     -0.305901
O       1.67928      0.04414     14.86986         0.319483      0.316847     -0.070866
O      13.52704      3.84885      2.59890        -0.394811      0.932619     -0.089341
O      13.43630      3.93584     14.90160        -0.039447     -1.029828     -0.010538
O      13.52546      0.05895      2.36730         0.562601      0.090876      0.460921
O      13.72700     15.59542     14.76768        -0.701362      0.414463      0.322604
O       1.95239      3.84959      6.87298         0.119407      0.350718     -1.201414
O       1.92187      0.14256      6.60347         0.035853     -2.016842     -0.013376
O      13.66303      3.90829      6.53582         0.290492     -0.321674      0.024919
O      13.54653     15.58267      6.66513         0.564817      0.469987      0.060952
O       1.98866      3.91325     10.79482        -0.148976     -0.563272      0.009267
O       2.00954     15.51939     10.83947        -0.754087      0.866454      0.185781
O      13.54455      3.85242     10.68906         0.295582     -0.081012      0.483983
O      13.50887     15.57059     10.84050         0.187135     -0.014865      0.057018
O       1.79361      7.75744      2.64930        -0.260419      0.783765     -0.429518
O       1.94264      7.76488     14.85858        -0.407331      0.376869      0.532954
O      13.52291      7.82664      2.54777         0.233701     -0.298641     -0.205812
O      13.58296      7.70444     15.08194         0.339859      0.309553      0.368002
O       1.98130      7.74040      6.42114         0.064981      0.007993      0.884985
O      13.67859      7.83058      6.62445        -0.379448     -0.771658      0.013284
O       1.90896      7.81731     10.78124        -0.221034      0.377094     -0.243101
O      13.68526      7.80561     10.73103        -0.006044     -0.202331      0.187107
O       1.76979     11.73168      2.44165         0.269915      0.018690     -0.299304
O       1.85817     11.71874     15.06402         0.132223     -0.779164     -0.025492
O      13.54441     11.79950      2.45803        -0.060417     -0.698353      0.179712
O      13.60853     11.61824     15.09234         0.180887      0.155647     -0.420783
O       1.72564     11.61970      6.61727         0.590683      0.855165      0.265957
O      13.78883     11.68346      6.61116        -0.454096     -0.414700     -0.028100
O       1.99073     11.73247     10.75740        -0.065791     -0.517484      0.185522
O      13.55435     11.60456     10.95482         0.075258      0.325977     -0.556037
O       5.65422      3.94304      2.39965         0.390659      0.855579     -0.206733
O       5.90618      3.85412     14.90844        -0.575033     -0.388656      0.769215
O       5.68805      0.02376      2.51053         0.396407     -1.333568      0.183508
O       5.63834      0.05469     14.90312         0.560693     -1.371347      0.017509
O       5.91320      3.93789      6.53597        -0.357068     -0.266365      0.570688
O       5.77009      0.01748      6.60871         0.042384     -0.463622     -0.102794
O       5.87053      3.94033     10.54060        -0.569909      0.786357      0.469465
O       5.89138      0.03550     10.83125         0.306179     -0.042819      0.310556
O       5.86541      7.93962      2.46583         0.422754     -0.840205      0.053750
O       5.91703      7.74699     14.87417        -0.138729      1.387677      0.403952
O       5.75791      7.86027      6.62066         0.014398      0.459609      0.068769
O       5.80218      7.85057     10.92094         0.081765     -0.424778     -0.501878
O       5.79505     11.74069      2.56848        -0.011107     -0.165629      0.171413
O       5.55688     11.64675     14.90252         0.487239      0.304516      0.453920
O       5.72716     11.74988      6.72665         0.601584     -0.638481     -0.232408
O       5.78031     11.79359     10.83696        -0.053354     -0.528270     -0.003036
O       9.69187      3.96826      2.55285        -0.386949      0.125128     -0.270786
O       9.72006      3.91337     14.84486        -0.103350     -1.034071     -0.496190
O       9.43111      0.03180      2.26600         0.245746      0.169042      0.436658
O       9.68848     15.52408     14.97185         0.196768      0.041375     -0.107021
O       9.74931      3.92067      6.42487        -0.937755     -0.072174      0.728177
O       9.80066     15.48941      6.81968        -0.333470      0.680416     -0.062148
O       9.78084      3.80855     10.90592        -0.777528      1.486821     -0.213324
O       9.71895      0.03576     10.64999        -0.485483     -2.011728      0.523062
O       9.51573      7.91088      2.22595         0.431905     -1.245930      0.401448
O       9.55441      7.77391     15.02013         0.230377      0.292370     -0.263999
O       9.87606      7.73732      6.77662        -1.053537      0.606115     -0.170983
O       9.82274      7.83454     10.59673        -0.583582     -0.710750      0.368250
O       9.65074     11.81402      2.50074         0.290763     -0.775893      0.505955
O       9.82838     11.70769     14.98729        -0.246349      0.216072     -0.453885
O       9.69686     11.63940      6.53051         0.074897      0.620660      0.336301
O       9.76534     11.67779     10.88605         0.020713     -0.024591     -0.021148
