  # total energy = -7881.13745193 
CRSYTAL
PRIMVEC
    15.6080000000000005    0.0000000000000000    0.0000000000000000
     0.0000000000000000   15.6080000000000005    0.0000000000000000
     0.0000000000000000    0.0000000000000000   16.6239999999999988
PRESSURE
-0.362987 -0.347505 0.993336 -0.175861 -0.22473 -0.043433
PRIMCOORD
320 1
Pb       4.04513      4.00779      4.24895        -0.961658     -0.306224     -0.302280
Pb       3.96041      3.99873     16.49863         0.030648     -0.638026      1.019797
Pb       3.93007      0.11991      4.03650        -0.112936     -0.904190      0.005934
Pb       3.83083      0.02553     16.43609         0.206297     -0.328971      0.726700
Pb       0.07585      3.85173      4.17079         0.172074      0.101207     -0.150984
Pb      15.58996      3.75804     16.60659        -0.469651      0.530711      0.217486
Pb      15.46071      0.02528      4.08804         0.363381     -0.574396      0.544148
Pb      15.53660      0.04277     16.58277         0.090056     -0.647268     -0.135812
Pb       3.80531      3.80952      8.24202         0.454683      0.092707     -0.038863
Pb       3.96046     15.56663      8.10862        -0.795091      0.161082      0.786266
Pb      15.53076      3.89206      8.34023         0.095555     -0.109404     -0.523598
Pb       0.00313     15.55528      8.23694         0.232035     -0.136554      0.105051
Pb       3.72320      3.90667     12.63011         0.443076      0.043462     -0.576544
Pb       3.88034     15.50265     12.54967        -0.050662      0.141613     -0.133887
Pb      15.60691      3.97989     12.62303        -0.197984     -0.144343     -0.569147
Pb       0.17682     15.55632     12.46159        -0.576671      0.144020     -0.026125
Pb       3.80734      7.89674      4.02015         0.106221     -0.580828      0.170827
Pb       3.96477      7.68102     16.58059        -0.404179      0.721846      0.266609
Pb       0.09450      7.85346      4.15458        -0.549782     -0.305822     -0.388641
Pb      15.50275      7.73505     16.58979         0.371752      0.672546      0.526251
Pb       3.83811      7.73011      8.33393        -0.149462      0.650798     -0.338111
Pb      15.34577      7.68958      8.52432         0.291253      0.623083     -0.484777
Pb       3.97812      7.82191     12.36751        -0.091451     -0.162322      0.300858
Pb      15.41475      7.74875     12.51849         0.698590      0.423668      0.079016
Pb       3.81574     11.68391      4.04649         0.067351      0.639145     -0.271171
Pb       3.94384     11.64123     16.57247        -0.637639     -0.003710      0.150464
Pb      15.56385     11.69042      4.11702         0.052403      0.253412     -0.223851
Pb      15.51733     11.76123     16.57530         0.438073     -0.067011      0.518747
Pb       3.85150     11.88443      8.28574         0.057344     -0.390185     -0.425794
Pb       0.09161     11.63878      8.11769        -0.527887      0.228513      0.603327
Pb       3.96958     11.58856     12.23267        -0.516915      0.096034      0.677105
Pb       0.10697     11.61909     12.42268         0.362717      0.028252     -0.073724
Pb       7.79768      3.66565      4.13437         0.164052      0.762382      0.310123
Pb       7.91237      3.96494     16.54803        -0.471171     -0.315496      0.518638
Pb       7.82698     15.48008      4.15702        -0.275338     -0.069105     -0.750356
Pb       7.83797      0.13656     16.54978        -0.254645     -0.450856      0.277581
Pb       7.64688      3.79043      8.53386        -0.254711      0.066813     -0.618768
Pb       7.79764      0.01826      8.21174        -0.301040      0.230856      0.862382
Pb       7.79199      3.58273     12.51599        -0.360915      0.785086     -0.080578
Pb       7.76317     15.49537     12.47353         0.131624     -0.351833     -0.364442
Pb       7.96065      7.83275      4.16305        -0.678291      0.103454      0.333895
Pb       7.64965      7.78738     16.57566         0.465726      0.093281      0.277516
Pb       7.83627      7.84405      8.15338         0.249313     -0.058570      0.154445
Pb       7.85263      7.62385     12.38479         0.061153      0.535653     -0.200247
Pb       7.87871     11.62142      4.11779        -0.254941      0.159963     -0.253500
Pb       7.77112     11.84623     16.49552        -0.127047     -0.650959      0.659598
Pb       7.75582     11.70658      8.17455        -0.187300     -0.519032      0.242273
Pb       7.83845     11.56830     12.35852         0.055784      0.714615     -0.080577
Pb      11.77104      3.72127      4.27864        -0.514015      0.349012     -0.534153
Pb      11.70338      4.10763      0.30780         0.215305     -0.138218     -0.965646
Pb      11.39611     15.49318      4.13284         0.403691      0.026204     -0.051865
Pb      11.68389     15.58653     16.49947         0.097211     -0.099264      0.076744
Pb      11.66145      4.14978      8.43299        -0.048095     -0.423476     -0.440949
Pb      11.67763      0.18828      8.40128         0.013802     -0.503593     -0.084807
Pb      11.83561      3.75193     12.50110        -0.013906      0.325192     -0.059474
Pb      11.53348     15.52388     12.35909         1.071091     -0.278417      0.592664
Pb      11.60498      7.68528      4.09931         0.454502      0.304783      0.120559
Pb      11.70148      7.86823      0.03020        -0.120922     -0.360786      0.077344
Pb      11.65351      7.80967      8.33840        -0.292870     -0.003322     -0.109493
Pb      11.46940      8.01807     12.50487         0.337888     -0.508915     -0.378749
Pb      11.86071     11.33871      4.18480        -0.684312      0.821591      0.321968
Pb      11.74212     11.63657     16.59520         0.069920      0.308088      0.359129
Pb      11.78868     11.90805      8.42091         0.129625     -0.702323     -0.245112
Pb      11.81964     11.77749     12.43194        -0.872364      0.084948      0.312234
Ti       1.88711      1.85489      2.24917         1.035864      1.164646      0.129603
Ti       1.89883      1.98671     14.79267         0.710253     -1.264306     -1.152949
Ti       1.82331     13.67718      2.20264         0.703365     -1.387084      0.137948
Ti       1.95103     13.54396     14.63019        -0.091167      0.667755      0.255420
Ti      13.63945      1.87246      2.22952        -0.810668      0.168701     -0.231555
Ti      13.58601      1.99172     14.67557         0.058442     -0.375909     -1.237024
Ti      13.50149     13.60393      2.26923         0.814258     -0.555099     -0.278911
Ti      13.61940     13.70030     14.56766        -0.886988     -0.139360     -0.245445
Ti       1.86505      1.99487      6.43244         0.101170     -0.261431     -0.527960
Ti       1.86694     13.71824      6.23386         0.311071     -0.019248      0.179929
Ti      13.56906      1.91454      6.41878         0.649525      0.279301     -0.253690
Ti      13.57838     13.65832      6.30191         0.454218     -1.091581      0.420278
Ti       1.91245      2.02530     10.55899         0.594753     -0.569000     -0.450929
Ti       1.96859     13.72087     10.52184        -0.090127     -1.366408     -1.042432
Ti      13.71945      1.87546     10.55238        -0.209308     -0.293840      1.350652
Ti      13.71789     13.59241     10.48519        -0.176290      1.046122      2.257680
Ti       1.90033      5.81889      2.13476         0.341189     -0.231554      1.169786
Ti       1.87560      5.90891     14.74741        -0.077682      0.468269     -0.895498
Ti      13.65554      5.77465      2.22177         0.639201      0.884220      0.148290
Ti      13.57576      5.92126     14.71884        -0.332528     -0.596961      0.353402
Ti       1.84931      5.97722      6.27739         0.208760     -0.469597      1.121220
Ti      13.58835      5.80072      6.28918         0.316394      0.041704      1.241236
Ti       1.89574      5.92691     10.60459         0.514953     -0.363247      1.118999
Ti      13.61075      5.83649     10.60238        -0.564066     -0.048280     -0.143102
Ti       1.88772      9.74216      2.13555         0.187149      0.908697      0.658233
Ti       1.91785      9.76751     14.70469        -0.018677     -0.261525     -0.395323
Ti      13.73929      9.63726      2.21031        -0.646508      0.336892      0.722814
Ti      13.62257      9.77801     14.68419         0.585753     -0.042813     -0.303174
Ti       1.90258      9.77659      6.23957         0.257924     -0.181872      1.391344
Ti      13.59372      9.63205      6.48085         0.618583      1.291885     -0.564637
Ti       1.97762      9.65683     10.48113        -0.418605      0.970756      0.704831
Ti      13.67981      9.78231     10.67452        -0.824670     -0.389260     -1.773765
Ti       5.83033      1.99672      2.18399        -0.338485     -0.530878     -1.063039
Ti       5.85763      1.98776     14.70752        -0.483789     -0.862428     -0.146790
Ti       5.81334     13.68304      2.09554        -0.710968     -0.017010      2.105503
Ti       5.83916     13.65187     14.60432        -0.131913      0.118250     -0.501741
Ti       5.91373      1.87315      6.27708        -0.869835      1.572485      0.731053
Ti       5.83681     13.67176      6.25232        -0.767676     -1.313100      1.059907
Ti       5.71149      1.83764     10.64013         0.801579      0.607110     -0.990989
Ti       5.78027     13.62371     10.47138         0.745723     -0.200768      0.620857
Ti       5.86677      5.85906      2.31984        -1.086879      0.067328     -0.717934
Ti       5.80455      5.90729     14.65939         0.355432     -0.501634      0.047938
Ti       5.73969      5.89601      6.36836         1.228757     -1.138674     -0.462297
Ti       5.84151      5.69283     10.63516         0.112728     -0.070844      0.233949
Ti       5.80602      9.75959      2.21651         0.510482      0.166552      0.948996
Ti       5.88114      9.77149     14.61742        -0.592070      0.157013      0.552242
Ti       5.78545      9.70980      6.29078         0.228301      1.017585      1.353767
Ti       5.95660      9.64489     10.43321         0.327691     -0.097054      1.050892
Ti       9.77175      1.97672      2.15814        -0.319651     -0.287273      0.834230
Ti       9.79978      1.95438     14.74831        -0.155135     -0.395612      0.006129
Ti       9.67511     13.63322      2.06675        -0.332959     -0.451005      1.096444
Ti       9.73730     13.60111     14.70313         0.674146      0.495892     -0.984075
Ti       9.75966      1.95891      6.43108        -0.582386      0.293660     -0.470802
Ti       9.68826     13.64543      6.45993         1.000415     -0.556028      0.061701
Ti       9.77176      1.92269     10.56796        -0.520593     -0.437432     -0.719507
Ti       9.74985     13.61523     10.44899        -0.190866     -0.628390      0.978544
Ti       9.72470      5.81845      2.25161        -0.178295     -0.152672      0.726117
Ti       9.71501      5.87569     14.70008         0.555444      0.124037      0.629047
Ti       9.64531      5.76401      6.30389        -0.270273      0.460017     -0.420105
Ti       9.76839      5.67592     10.65174        -0.474297      1.459888     -0.677103
Ti       9.76380      9.77846      2.11111        -0.158917     -0.067326      3.041698
Ti       9.73700      9.76056     14.71466        -0.147795     -0.358294      0.914565
Ti       9.81825      9.81053      6.31495        -0.871065     -0.381915      1.132469
Ti       9.79880      9.80902     10.38386        -0.601053     -0.319063      0.679404
O       1.89305      1.86748      0.44562        -0.243888      0.015745      0.242939
O       1.97615      1.94068     12.98007        -0.223813     -0.166182     -0.126068
O       1.90627     13.47553      0.44432        -0.203537      0.736458     -0.934403
O       2.07225     13.72661     12.84399        -0.855142     -0.507799      0.348410
O      13.66546      1.93004      0.44401        -0.077831     -0.055202     -0.214345
O      13.60482      1.98813     12.83214         0.392046      0.356093      1.904917
O      13.60988     13.37361      0.49652        -0.498405      0.690882     -0.288711
O      13.41235     13.66470     12.80749         0.838759     -0.116400      0.489130
O       1.70848      2.04368      4.64935         0.181510     -0.253114     -0.156682
O       1.86822     13.69059      4.47003        -0.227584     -0.262190      0.360070
O      13.59057      2.13061      4.58365         0.107773     -0.748882      0.704448
O      13.66958     13.61638      4.53546        -0.328867      0.230200     -0.232104
O       1.80705      2.00252      8.76140         0.373141     -0.099786      0.443810
O       1.96912     13.61732      8.71826        -0.126466      0.170580      0.177410
O      13.61449      1.85418      8.78610         0.088812      0.166229     -0.654490
O      13.65043     13.59010      8.78015         0.120057      0.272755     -1.820599
O       2.01003      5.78509      0.35909        -0.041040     -0.041323     -0.410763
O       1.79055      5.69869     12.89522         0.289243      0.421347      1.208484
O      13.63131      5.84186      0.40754        -0.182383      0.079978     -0.021073
O      13.65931      5.85154     12.91843         0.252722     -0.256259      0.389406
O       1.76878      6.05178      4.53831         0.208710     -0.762420     -0.265274
O      13.60658      5.89756      4.53766         0.077808     -0.309315      0.331284
O       2.00374      6.17310      8.88904        -0.284176     -0.609006     -1.019793
O      13.49751      5.83325      8.74286         0.375818     -0.130622      1.143181
O       1.84036      9.79744      0.41667         0.352906     -0.088625     -1.328171
O       1.76739      9.80838     12.91615         0.545141      0.067300      0.215121
O      13.69387      9.68763      0.45649        -0.458993      0.130080     -1.171113
O      13.60153      9.83846     12.88844         0.007187     -0.610367     -0.519924
O       1.83391      9.77801      4.45804         0.247838     -0.237259      0.665447
O      13.53942      9.69654      4.65333         0.433655     -0.404157      0.402665
O       1.96335      9.64439      8.74481        -0.223230     -0.167211     -0.181372
O      13.55154      9.67759      8.84133         0.071467     -0.005252      0.068540
O       5.70081      1.95669      0.34675         0.609468      0.015317      1.108887
O       5.84224      1.84552     12.88130         0.353411     -0.048891      0.349426
O       5.83678     13.70025      0.37044         0.027293     -0.155021     -1.268937
O       5.81228     13.60283     12.78832         0.255961     -0.001456      1.046111
O       5.87228      1.90574      4.49743         0.145502     -0.088315     -0.326681
O       5.87173     13.58486      4.52421         0.010599      0.629774     -0.276040
O       6.01553      1.86796      8.81239        -0.738210      0.312912      0.658487
O       5.72871     13.60131      8.71070         0.257020      0.072323      0.008902
O       5.66775      5.87342      0.47086         0.069888      0.034433     -0.117382
O       5.83296      5.93876     12.93125         0.226736     -0.104812     -0.370217
O       5.82409      5.78071      4.59107        -0.437066      0.138875      0.108004
O       5.88949      5.48220      8.88314        -0.178839      0.747398     -1.218936
O       5.81645      9.65826      0.46976        -0.152203      0.012768     -0.489736
O       5.84125      9.71960     12.86852         0.055859      0.035010      0.100870
O       5.74386      9.81445      4.55089         0.049569     -0.226768     -0.112180
O       6.06798      9.61465      8.71055        -0.256625      0.330533     -0.644495
O       9.74451      1.90727      0.40413         0.252924      0.238944     -0.761500
O       9.63369      1.82918     12.98654         0.256144      0.304146     -0.902575
O       9.48470     13.59522      0.33069         0.828474      0.344987      0.070713
O       9.76921     13.56407     12.90840        -0.166839      0.243167     -0.087491
O       9.78514      1.92154      4.56889        -0.187953     -0.035410      0.848158
O       9.74253     13.68753      4.70734        -0.331202      0.554884     -1.136545
O       9.65503      1.87898      8.75438         0.460514      0.156471      0.721414
O       9.80632     13.58577      8.68775        -0.191646      0.161746     -0.746073
O       9.70733      5.79093      0.46638         0.289104     -0.145157      0.098979
O       9.71358      5.89909     12.94655         0.116241     -0.138753     -0.206375
O       9.73433      5.79770      4.48506        -0.130790      0.008327      0.747151
O       9.71591      5.66535      8.83124         0.368727      0.185232      0.312688
O       9.80774      9.70077      0.42880        -0.340196     -0.186381     -1.932032
O       9.83281      9.70594     12.97885        -0.354158      0.237162     -0.511449
O       9.80275      9.75263      4.55872        -0.216240     -0.097493     -1.051698
O       9.63895      9.78145      8.62846         0.391204     -0.160348     -0.297329
O       3.89078      1.89095      2.56019        -0.976972     -0.115471     -0.135164
O       3.88295      1.92556     15.08855        -0.529579     -0.233502     -0.673545
O       3.78589     13.73719      2.48842         1.417975     -0.102657      0.031870
O       3.84289     13.67020     14.75383         0.630844     -0.325526      1.064504
O      15.54473      1.87815      2.53095         0.218581      0.472555     -0.047808
O      15.56388      1.84701     15.06919        -0.161063      0.895914     -0.201931
O      15.51762     13.51084      2.41066        -0.216865      0.580990      0.575159
O      15.45643     13.49366     14.88656         0.576148      0.160970     -0.119054
O       3.79256      1.92153      6.65848         0.378183     -0.207862     -0.035235
O       3.82623     13.65614      6.65840         0.385750      0.202496     -0.387825
O      15.50108      1.85509      6.81402        -0.410523      0.498915     -0.298315
O       0.00322     13.64879      6.68193        -0.749473      0.338681     -0.072890
O       3.90448      1.78678     10.88981        -0.945334      0.607539     -0.178939
O       3.90781     13.51877     10.74890         0.197052      0.027006      0.347707
O       0.07589      1.85356     10.87777        -0.366452      0.241164      0.147607
O       0.06943     13.66369     10.89667        -1.136836      0.040636     -0.130994
O       3.74293      5.86476      2.66912         0.513207      0.105019     -0.270242
O       3.87813      5.79270     14.92656        -0.183407      0.485758     -0.007600
O      15.56133      5.93170      2.47756         0.650078     -0.663067     -0.043098
O       0.03027      5.92086     15.14422        -0.596697     -1.091228     -0.766027
O       3.85418      5.72182      6.67957         0.039557      0.559292      0.019914
O      15.59514      5.83630      6.64828        -0.491765      0.366051      0.299354
O       3.95068      5.82096     10.94621        -0.962696      1.041590      0.054197
O      15.57087      5.92877     10.88130         0.127796     -0.643751     -0.287470
O       3.86927      9.76195      2.58421         0.194971      0.017775     -0.598118
O       3.83912      9.74845     14.98457         0.599381      0.188743      0.021186
O      15.59888      9.84337      2.45108        -0.387695     -0.256436      0.469366
O      15.53620      9.75319     14.95381        -0.538937      0.204461      0.193519
O       3.89446      9.82227      6.79745        -0.405424     -0.473077     -0.812510
O      15.56144      9.60656      6.76966         0.466858      0.058277     -0.460813
O       3.92481      9.51088     10.69896         0.011519      0.377679      0.175555
O      15.52462      9.73232     10.82047         0.876644      0.218868      0.189187
O       7.78280      2.15816      2.36179        -0.228878     -0.464631      0.225531
O       7.80999      2.00120     15.08421        -0.407769     -0.099587     -0.402260
O       7.76212     13.66793      2.58853         0.460945     -0.264434     -0.329475
O       7.82673     13.65368     14.93264        -1.634874     -0.252115     -0.237285
O       7.73757      1.88988      6.63162         1.411936     -0.416507     -0.075343
O       7.70949     13.61658      6.76319         0.935441      0.677183     -0.629783
O       7.80473      1.97736     10.82996         0.500676     -0.194499      0.491453
O       7.84163     13.55932     10.82578        -0.761819      0.203108     -0.153198
O       7.66750      5.78115      2.39737         1.763804     -0.280480      0.346945
O       7.72366      5.80442     15.11541         0.085062      0.158367     -0.531030
O       7.77094      5.85375      6.51405        -0.001480     -0.162703      0.637831
O       7.81265      5.57508     10.94922         0.500956      0.489973      0.112880
O       7.74680      9.71796      2.62123         0.473207      0.082159     -0.467854
O       7.78879      9.79514     15.02685        -0.168806     -0.044670     -0.181140
O       7.78255      9.65675      6.56036        -0.516299      0.708822     -0.054173
O       7.88650      9.80361     10.92123        -0.242474     -0.515876     -0.482825
O      11.65341      1.91652      2.53205         0.530027     -0.035487     -0.040540
O      11.69163      1.82451     14.93447         0.377292      0.355712      0.145335
O      11.56024     13.77782      2.41336         0.197941     -0.149499      0.029259
O      11.62888     13.84234     14.94222         0.684317     -0.839095      0.645580
O      11.62467      2.01826      6.83774         1.002448     -0.118429     -0.503210
O      11.75475     13.45798      6.69838        -0.554400      0.828993     -0.154239
O      11.75827      1.88229     10.91160        -1.211909      0.513364     -0.467160
O      11.71626     13.57657     10.74144        -0.334162      0.465420     -0.065694
O      11.76469      5.90094      2.55570        -1.218687     -0.194140     -0.622918
O      11.66722      5.91190     15.08915         0.123879     -0.045207     -0.236784
O      11.63191      5.77185      6.65465         0.349923      0.039254     -0.013390
O      11.70960      5.77628     10.96369         0.145840     -0.175964     -0.355588
O      11.67785      9.64263      2.45405        -0.087292     -0.147003      0.146262
O      11.68675      9.50047     15.03217        -0.365094      0.501528     -0.020709
O      11.67612      9.77545      6.62548         0.528700     -0.225534      0.540193
O      11.64407      9.88888     10.87756         0.390387     -1.118107     -0.033676
O       1.94170      3.86270      2.62254        -0.658908      0.003927     -0.531075
O       1.96789      3.82776     14.90393        -0.615821      0.885608      0.673471
O       1.87036     15.56398      2.65317        -0.357532      1.338193     -0.568538
O       1.78769     15.51443     15.01938         0.333116     -0.061942      0.045535
O      13.57526      3.90470      2.38301         0.151996     -0.649728      0.442577
O      13.63163      3.92690     15.04424         0.226124     -0.564871     -0.210875
O      13.64792     15.56730      2.49669        -0.154573      0.179022      0.041743
O      13.64697     15.60077     14.92129         0.246127     -0.003760      0.476449
O       1.88902      3.92237      6.78094        -0.493858      0.253268     -0.213548
O       1.81871     15.60675      6.62073         0.330328      0.212355      0.204219
O      13.72875      3.88778      6.70968        -0.491219      0.204048     -0.056722
O      13.50638     15.58126      6.57329         0.175390      0.514998      0.320455
O       2.08904      3.92560     10.85476        -0.795306     -0.434999     -0.198080
O       2.05577     15.53417     10.84218        -0.400272      1.280129      0.226964
O      13.77244      3.88005     10.87187        -0.318575      0.174673     -0.029608
O      13.60976      0.02603     10.95249         0.504987     -0.813318     -0.677209
O       1.92518      7.83578      2.37478        -0.135201     -0.552411      0.422970
O       1.87510      7.82959     14.95196         0.374295     -1.030222      0.134158
O      13.77586      7.80399      2.59780        -0.563876      0.042600     -0.371596
O      13.68061      7.77785     14.99258        -0.016507      0.069659      0.031812
O       1.97812      7.85960      6.53169         0.378049     -0.585400      0.283058
O      13.55497      7.72594      6.92815         0.055513     -0.102918     -1.051262
O       1.85759      7.81398     11.06573         0.269844     -0.155513     -0.347217
O      13.68538      7.78487     10.82050        -0.504963     -0.189077      0.260829
O       1.92172     11.68108      2.49501         0.245736      0.230545      0.420844
O       1.85780     11.67224     15.06832         0.331469      0.547224     -0.549538
O      13.55441     11.64118      2.68663         0.113618      0.070754     -0.715431
O      13.27433     11.62328     14.88026         0.876614      0.756628      0.180863
O       1.82131     11.70985      6.54518         0.407761     -0.508913     -0.000739
O      13.77545     11.66695      6.67388        -0.379072     -0.290632      0.114837
O       1.92966     11.69595     10.87038         0.215576     -1.088723     -0.216827
O      13.54682     11.71791     10.84898         1.001763     -0.020465     -0.157922
O       5.63863      3.89477      2.61581         0.656836     -0.024944     -0.391425
O       5.75896      3.82431     14.87514         0.272012      1.335398      0.143252
O       5.88211      0.02470      2.52738         0.135226      0.037150     -0.085730
O       5.78852     15.57444     14.92041         0.407801     -0.387013     -0.007279
O       5.83553      3.73400      6.62322        -0.228861      1.017205      0.219774
O       5.85035      0.00880      6.77699        -0.066335     -0.831810     -0.918213
O       5.70443      3.84492     11.01599         0.471444     -0.959540      0.143768
O       5.76765     15.50672     10.80478         0.593464      0.029923      0.287917
O       5.80484      7.74774      2.62586        -0.198321      0.555461     -0.296629
O       5.79197      7.86478     14.95834         0.250580     -0.983076      0.280527
O       5.84286      7.77192      6.73234        -0.561516     -0.518789     -0.406018
O       6.08803      7.74027     10.82970        -0.710047     -0.320102     -0.079246
O       5.83150     11.75194      2.49299        -0.221304     -0.552884     -0.400489
O       5.81969     11.68604     15.10507        -0.006102      0.474454     -0.779712
O       5.78857     11.75804      6.68402         0.324323     -0.574164     -0.168102
O       5.80116     11.53471     10.83910         0.376952      0.910189     -0.539218
O       9.82766      3.87852      2.60837        -0.061197      0.359846     -0.603101
O       9.84254      3.88667     15.04926        -0.445245      0.150206     -0.107007
O       9.58247      0.02639      2.44172         0.219774     -0.297411      0.370119
O       9.70826     15.54914     15.00145        -0.343834      1.030650      0.416282
O       9.70162      3.82864      6.69496        -0.102086      0.639822     -0.295878
O       9.84355     15.59952      6.69494        -0.278068     -0.023987      0.158002
O       9.84202      3.83452     10.95441         0.053234     -1.003317      0.044531
O       9.75948     15.54287     10.78211        -0.182299      0.696317      0.109511
O       9.66917      7.71240      2.58260         0.196755      0.408971     -0.475832
O       9.60851      7.77712     15.03788         0.127031     -0.151363      0.071093
O       9.67718      7.84712      6.54434         0.602253     -1.227010      0.415945
O       9.78767      7.80412     10.79261        -0.161850     -0.353670      0.283634
O       9.78381     11.66352      2.47513        -0.501972      0.452342     -0.270626
O       9.84295     11.68409     15.10109        -0.209611     -0.484495     -0.388515
O       9.73067     11.73225      6.55364        -0.586807     -0.309761      0.562909
O       9.77136     11.68562     10.74370        -0.250451      0.230863      0.192182
