  # total energy = -7883.42969129 
CRSYTAL
PRIMVEC
    15.6080000000000005    0.0000000000000000    0.0000000000000000
     0.0000000000000000   15.6080000000000005    0.0000000000000000
     0.0000000000000000    0.0000000000000000   16.6239999999999988
PRESSURE
-0.929408 -1.06365 -1.07438 -0.212445 0.465872 0.037805
PRIMCOORD
320 1
Pb       3.94994      3.81716      4.14580        -0.263264      0.342545     -0.192312
Pb       3.85173      3.84879      0.04211         0.110372     -0.274686     -0.388140
Pb       3.91888     15.59386      4.15242        -0.062566     -0.026822     -0.102184
Pb       3.84405     15.52849     16.61199         0.280723      0.497452     -0.306254
Pb      15.46899      3.84232      4.09965         0.548727     -0.023146      0.116745
Pb      15.57833      3.84664     16.57670        -0.462198     -0.030579     -0.074571
Pb       0.04674     15.58506      4.10444        -0.134357      0.317083      0.522808
Pb       0.07213     15.59533      0.00756        -0.382606      0.097472     -0.327471
Pb       3.90994      3.90820      8.31342        -0.115814      0.299716     -0.062108
Pb       3.96498      0.15125      8.37721        -0.167373     -0.483712      0.004167
Pb      15.56820      3.93020      8.23073         0.124096     -0.111937      0.073331
Pb       0.07700      0.01024      8.27216        -0.187400     -0.178659     -0.006130
Pb       3.73575      4.01201     12.55937         0.386859     -0.338823     -0.182983
Pb       3.81136     15.46590     12.43390         0.253737      0.496354      0.055214
Pb      15.56301      3.82637     12.37109        -0.174829      0.270341      0.503198
Pb       0.02721     15.59643     12.44335        -0.307639      0.059429     -0.351906
Pb       3.76027      7.83907      4.07362         0.243086     -0.479274      0.190828
Pb       3.78267      7.71587     16.55927         0.550184      0.092692      0.612447
Pb       0.00002      7.88193      4.01672         0.065954     -0.555491      0.252283
Pb      15.58624      7.79318     16.59715        -0.183733     -0.334853      0.544476
Pb       3.97709      7.80251      8.30675         0.165553     -0.077887      0.010453
Pb      15.49766      7.79653      8.42407        -0.049788     -0.046969     -0.791206
Pb       3.83905      7.85317     12.54537         0.295618      0.268746     -0.795645
Pb      15.48480      7.73722     12.46319         0.276898     -0.042620     -0.281675
Pb       3.92165     11.71175      4.14691         0.050707      0.236117     -0.433255
Pb       3.86904     11.67892     16.52606         0.461130     -0.039026      0.188057
Pb      15.60588     11.81441      4.11329         0.026180      0.029343      0.533581
Pb       0.04648     11.80393      0.08500        -0.540375     -0.116813     -0.399999
Pb       3.86631     11.76388      8.30305        -0.126743     -0.442257     -0.087799
Pb      15.44985     11.69388      8.21068         0.776162      0.270659     -0.188548
Pb       3.79999     11.80978     12.45350         0.358528     -0.569296     -0.380886
Pb      15.56895     11.53781     12.38927         0.210993      0.061921      0.258979
Pb       7.71888      3.79848      4.10394         0.597639      0.288274     -0.034294
Pb       7.61455      3.74234     16.57835         0.966522      0.548076      0.338989
Pb       7.70407     15.54799      4.09235         0.663111      0.088574      0.186830
Pb       7.76938     15.52708      0.02564        -0.103277      0.447749     -0.364284
Pb       7.75616      3.88425      8.41764         0.120886     -0.048169      0.064071
Pb       7.86502     15.53891      8.43028        -0.338261      0.310616     -0.255823
Pb       7.79607      3.89110     12.51663        -0.204781     -0.187574     -0.604835
Pb       7.90004      0.06811     12.52820        -0.420913     -0.203244     -0.128156
Pb       7.68973      7.79280      3.99147         0.479816      0.233860      0.220024
Pb       7.79960      7.84363     16.53206         0.162721     -0.457723      0.417416
Pb       7.92259      7.84474      8.35899        -0.693106      0.011715     -0.114419
Pb       7.92163      7.69225     12.50994        -0.850893      0.280249     -0.609104
Pb       7.77101     11.78173      4.04424         0.165427     -0.370333     -0.093197
Pb       7.77307     11.61221     16.55118         0.174627      0.190079     -0.076321
Pb       7.65076     11.67355      8.30468         0.550286     -0.029041      0.232250
Pb       7.78491     11.59374     12.48876        -0.235210      0.682030      0.119732
Pb      11.74469      3.97189      4.27493        -0.565676     -0.482218     -0.262996
Pb      11.76855      3.95932      0.03212        -0.256211     -0.405562     -0.358577
Pb      11.67312      0.14182      4.20324        -0.056148     -0.161692      0.013422
Pb      11.65691     15.56595     16.59305         0.579326      0.615879      0.025471
Pb      11.63594      3.96634      8.32435         0.206581     -0.358557      0.006836
Pb      11.48470     15.51447      8.22703         0.726311      0.469074      0.517413
Pb      11.70196      3.78638     12.45153         0.214006      0.166075     -0.290516
Pb      11.72129     15.48881     12.40177         0.431250      0.506366     -0.287393
Pb      11.76513      7.64341      3.97950        -0.626171      0.360603      0.612115
Pb      11.65925      7.76418     16.61319         0.152920     -0.130169      0.210102
Pb      11.65182      7.84153      8.12776         0.914903     -0.175521      0.525599
Pb      11.60506      7.80238     12.51757         0.675981     -0.316245     -0.855381
Pb      11.67332     11.69804      4.30900        -0.295070      0.394719     -0.215917
Pb      11.90029     11.75058     16.58588        -0.476512     -0.136428      0.205602
Pb      11.74183     11.73781      8.32717        -0.672889     -0.091043     -0.709816
Pb      11.59748     11.65867     12.33063         0.263365      0.194859      0.596600
Ti       1.94533      1.96452      2.15661         0.165651     -0.132459      0.145113
Ti       1.88225      1.92843     14.71051         0.659662     -0.045978      0.649765
Ti       1.95749     13.67260      2.21793         1.495725      0.332781     -0.567358
Ti       1.94607     13.60123     14.65889        -0.142370      0.778141      0.084217
Ti      13.66104      1.91097      2.21691        -0.704856      0.176653      0.005786
Ti      13.59092      1.86258     14.64898         0.017218      0.361761      0.085338
Ti      13.67494     13.73552      2.24008        -0.318129     -0.140022      0.616304
Ti      13.66295     13.59590     14.60885         0.193371      0.637193      0.407463
Ti       1.94964      1.84526      6.32441        -0.136346      1.243053     -0.247700
Ti       2.02840     13.64021      6.40629        -0.785628     -0.308803     -0.380494
Ti      13.60508      1.92094      6.40981        -0.465488     -0.145954     -0.720367
Ti      13.62745     13.74090      6.38921         0.186886     -0.312132     -0.038146
Ti       1.96065      1.93879     10.55906         0.267801     -0.849333      0.147496
Ti       1.87719     13.60088     10.48760         0.293981      0.239267     -0.131121
Ti      13.73451      1.87338     10.42061        -1.148134      0.146768      2.097078
Ti      13.69504     13.52421     10.45955        -0.465857      2.334084      0.544475
Ti       1.92032      5.80503      2.14944         0.463974     -0.107411      1.141552
Ti       2.00163      5.80832     14.68399        -0.899664     -0.854422     -0.886848
Ti      13.61605      5.77722      2.25135         0.801316     -0.492992     -0.452575
Ti      13.69881      5.82703     14.72435        -0.222537     -0.941006     -0.429822
Ti       1.99670      5.74616      6.34138         0.230391      0.543913      0.028338
Ti      13.72281      5.80121      6.31029        -1.336066      0.570916      0.725454
Ti       1.94396      5.73413     10.48442         0.137825      0.918646      1.311138
Ti      13.57647      5.86837     10.52557         0.424697     -0.934894     -0.746061
Ti       1.86614      9.75982      2.18878         0.689274     -0.102017     -0.598367
Ti       1.87302      9.68093     14.75001         0.640532      0.361592     -0.586348
Ti      13.61279      9.86844      2.25757         0.168007     -0.343471      0.068684
Ti      13.69663      9.70980     14.74687        -0.034553      0.378474     -1.291781
Ti       1.97515      9.65395      6.44668         0.052361      0.086859     -0.002286
Ti      13.67072      9.77772      6.28122        -0.428764     -0.743532      0.049926
Ti       1.91573      9.64214     10.45346         0.675903      0.087778      0.913250
Ti      13.57619      9.76222     10.52294        -0.000717     -1.422463      0.253980
Ti       5.82437      1.91495      2.20112         0.247853      0.089064     -1.149945
Ti       5.83414      1.90229     14.61900        -0.810811     -0.362998      0.761820
Ti       5.87274     13.68081      2.12619        -0.676842     -1.116721      0.051809
Ti       5.86020     13.61853     14.70798         0.404216      0.793768     -1.652522
Ti       5.82647      1.95361      6.46913         0.018103     -0.601810     -0.852666
Ti       5.83499     13.63816      6.42442        -0.097311      1.036937     -0.942634
Ti       5.80259      1.97779     10.58662         0.268283      0.384833      0.194740
Ti       5.85132     13.73847     10.59879         0.138007     -0.242045      1.297050
Ti       5.88810      5.81863      2.14116        -0.759770      0.000310     -0.303340
Ti       5.89410      5.83950     14.71839         0.028475     -0.891265      0.244342
Ti       5.96824      5.86378      6.36011        -1.017094      0.453353     -0.311648
Ti       5.79841      5.92337     10.48347        -0.409966      0.133489     -0.400010
Ti       5.76581      9.69210      2.18164         0.827510      0.902024      0.001634
Ti       5.87875      9.65798     14.70918        -0.765462      1.179497     -1.746361
Ti       5.89799      9.76878      6.32510        -0.865532     -0.821719      0.105871
Ti       5.76538      9.86599     10.55256        -0.471414     -2.190417      0.365606
Ti       9.74298      1.93899      2.24174         0.240328      0.195970      0.745046
Ti       9.71457      1.90347     14.66244         0.698559      0.757904     -0.499587
Ti       9.90191     13.64075      2.14605        -0.435296      0.295886      1.441339
Ti       9.79892     13.65389     14.69040        -0.643469     -0.485013     -1.078603
Ti       9.63931      1.95358      6.42805         1.166837     -0.026557     -0.111019
Ti       9.65159     13.62221      6.42273         1.122009     -0.447577     -1.103822
Ti       9.75246      1.94726     10.54072         0.397896      0.481526     -0.421714
Ti       9.72121     13.62048     10.62108        -0.112897      0.034833     -0.643786
Ti       9.68224      5.86956      2.14896        -0.208590     -1.605187      0.113271
Ti       9.77663      5.84548     14.63066        -0.009486     -1.721015      0.782964
Ti       9.73675      5.82449      6.40384         0.899458     -0.417790     -0.939157
Ti       9.72080      5.86129     10.46706         0.356974     -1.080980      0.717880
Ti       9.77014      9.79905      2.17800        -0.452791     -0.224935      0.845865
Ti       9.89263      9.74554     14.62608        -1.007408      1.000950      0.605817
Ti       9.69323      9.73418      6.32900         0.506307      0.762823     -1.070698
Ti       9.64430      9.71812     10.50120         0.528615     -0.005822     -1.071464
O       2.04329      1.91024      0.34575        -0.611284      0.376234      1.152353
O       1.84151      1.85508     12.96731         0.217835     -0.212121     -1.339235
O       2.12418     13.70368      0.38132        -0.824182     -0.448280      0.521006
O       1.98108     13.69440     12.83883        -0.277807     -0.307258      0.897160
O      13.65182      1.87244      0.45942         0.109294      0.017944     -0.452503
O      13.67980      1.92310     12.84369         0.014356     -0.155708      0.798380
O      13.69235     13.62318      0.48056        -0.050723     -0.116891     -0.558276
O      13.71147     13.55971     12.84307        -0.145545      0.112778      0.370400
O       2.14558      1.96113      4.54989        -0.487485     -0.102028      0.074508
O       1.96193     13.62432      4.58746         0.050536      0.140276      0.069287
O      13.56092      1.95684      4.57880         0.181299     -0.215103      0.423579
O      13.75429     13.69179      4.59726        -0.141208     -0.537195     -0.218359
O       1.94065      1.90822      8.79086         0.129629      0.053184     -0.557889
O       1.90347     13.71923      8.72695         0.022010     -0.319469     -0.590601
O      13.66546      1.92687      8.71129         0.235355      0.118801     -1.608163
O      13.60332     13.58535      8.69684         0.122674     -0.278663     -0.213716
O       2.01326      5.73247      0.37994        -0.236984      0.320405     -0.393373
O       1.95958      5.80803     12.84960         0.407328      0.104900      1.016880
O      13.70031      5.63513      0.47396        -0.152860      0.554067     -0.723446
O      13.69684      5.87603     12.93900        -0.117910     -0.042471      0.212813
O       2.08067      5.91761      4.57313        -0.235763     -0.006755     -0.200557
O      13.54748      5.72014      4.51280         0.375298      0.228257     -0.058200
O       1.93522      5.62892      8.76587        -0.256344      0.158552     -1.568068
O      13.61104      5.79848      8.68313         0.424991      0.181808      0.585042
O       1.83241      9.60778      0.39132         0.370942      0.578999      0.234911
O       1.72655      9.56643     12.99053         0.303321      0.502498     -0.199616
O      13.68183      9.86409      0.47809        -0.128128     -0.411698     -0.706999
O      13.77545      9.76355     12.91271        -0.186163     -0.319980      0.648993
O       2.01689      9.59212      4.64085        -0.146995      0.147131     -0.267277
O      13.63592      9.84196      4.48393         0.357558     -0.194119      0.064478
O       1.90997      9.68545      8.69209        -0.058655      0.375012      0.053175
O      13.57174      9.58019      8.76385         0.474395      0.772024     -0.133951
O       6.02218      1.89943      0.36675        -0.474488      0.122701      0.959164
O       5.93332      2.02366     12.86000        -0.121966     -0.326120     -0.466960
O       5.74456     13.63411      0.34189         0.546686     -0.012172     -0.099855
O       5.90381     13.65088     12.84637        -0.403328     -0.431675      0.902862
O       5.72179      1.89133      4.62035         0.313575      0.224269      0.610614
O       5.77140     13.76910      4.62263         0.316227     -0.485236      0.163085
O       5.70089      1.78077      8.76939         0.473695      0.530762     -0.296958
O       6.00893     13.69351      8.86072        -0.148654     -0.463400     -1.554517
O       5.91883      5.74663      0.33692         0.054104     -0.022327     -0.430090
O       5.83242      5.75951     12.95299         0.122201      0.252384     -0.369506
O       5.99553      5.80883      4.53568        -0.377565      0.149194      1.030326
O       5.78318      5.96664      8.67081         0.321910     -0.222245      0.411619
O       5.82163      9.83197      0.41432         0.034702     -0.342932     -0.838183
O       5.78177      9.59015     12.88438         0.491101      0.637666      0.967303
O       5.93976      9.70582      4.52584        -0.206587     -0.011112      0.112257
O       5.79682      9.77884      8.76434         0.175044      0.253029     -0.008866
O       9.68165      1.72347      0.50716        -0.079170      0.223394     -1.085692
O       9.66360      1.89049     12.82162         0.435723      0.457155      0.975406
O       9.83277     13.58912      0.38262        -0.007573      0.352528     -0.008633
O       9.71203     13.51657     12.84879         0.751612      0.373038      0.654522
O       9.65327      1.88985      4.63220         0.184690      0.160860      0.281609
O       9.75488     13.58967      4.63781        -0.140813      0.138945      0.137494
O       9.77372      1.91298      8.73723        -0.464041     -0.191359      0.492655
O       9.74102     13.61098      8.78948        -0.339524      0.066787      0.251916
O       9.67248      5.69947      0.38675         0.603981      0.675051      0.197173
O       9.74655      5.82250     12.80797        -0.059062      0.409864      0.812624
O       9.85980      5.75899      4.58669        -0.387081      0.163815      0.607108
O       9.86562      5.88900      8.69794        -0.435530      0.009993      0.092922
O       9.97183      9.76659      0.42931        -0.663321     -0.019645     -0.944825
O       9.77290      9.73412     12.82892        -0.051957     -0.319139      0.512940
O       9.53703      9.66266      4.47919         0.814351      0.145989      1.526444
O       9.70787      9.76888      8.67162         0.008720     -0.383766      0.933757
O       3.87844      1.93664      2.40960         0.425983      0.538297      0.244673
O       3.93386      1.97314     15.09027         0.361813     -0.041628     -0.647105
O       3.94061     13.49534      2.46520        -0.508832      0.497852      0.465036
O       3.91457     13.60697     14.86547        -1.223923     -0.460515      0.185801
O       0.01179      1.90168      2.54269         0.594242     -0.125824      0.000727
O      15.60641      1.86154     15.07490        -0.575952      0.059392     -0.134507
O       0.08918     13.88961      2.47153        -0.663597     -1.224828     -0.006704
O      15.57550     13.73922     15.06662         0.748770     -0.445568     -0.305428
O       3.88602      1.98160      6.67827         0.403700     -0.145111      0.414093
O       3.89824     13.67879      6.71557         0.169473     -0.303082      0.280815
O      15.58682      1.78002      6.56432        -0.004018      0.413743      0.329511
O      15.54450     13.70563      6.69720         0.629775     -0.416802      0.207799
O       3.91328      1.85627     10.94827        -0.293420      0.475814     -0.156336
O       3.90123     13.52909     10.71421         0.104334      0.511619      0.603997
O       0.00646      1.80488     10.78285         0.359358      0.426619      0.247053
O      15.57785     13.59259     10.73064         0.348936     -0.010759      0.275394
O       4.00097      5.82548      2.38929        -1.123163      0.181728      0.380085
O       3.92422      5.72051     15.07997         0.295780      0.349876     -0.483389
O       0.05288      5.90363      2.52158        -0.024417     -0.183047      0.123120
O       0.02348      5.70820     14.99054         0.249728      0.883943      0.165008
O       3.86085      5.73636      6.66427         0.688004      0.202144      0.010434
O      15.56331      5.71776      6.54288         0.442926      0.337655      0.404225
O       3.90863      5.62971     10.74274        -0.305796     -0.203896      0.485740
O       0.04405      5.84102     10.76900        -0.165307      0.567493      0.176026
O       3.86847      9.77612      2.49237        -0.026122     -0.111268      0.048586
O       3.83756      9.77303     14.90487         0.160378     -0.094040      0.497354
O      15.59464      9.68450      2.42142         0.082811      0.017995      0.709109
O      15.53516      9.57758     15.09116         0.916218      0.064754     -0.004703
O       3.97203      9.73343      6.76426        -0.796858      0.206122     -0.402976
O      15.59715      9.74028      6.61527         0.034746      0.267045      0.277644
O       3.84937      9.78843     10.91513        -0.535320      0.399193     -0.041737
O      15.57388      9.64933     10.86432         0.233013      0.129077     -0.541465
O       7.69387      1.84531      2.58523         0.352969     -0.369694      0.121034
O       7.83288      1.68499     14.92751         0.014115      0.287874      0.165156
O       7.81090     13.67707      2.45081         0.065212      0.157038     -0.047773
O       7.86380     13.75132     14.94384        -0.323133     -0.175448      0.475703
O       7.79065      1.85118      6.76190        -1.195363      0.506822      0.141453
O       7.80191     13.62617      6.69452        -0.825516     -0.136276      0.254449
O       7.83448      1.93628     10.87294        -0.305189     -0.216864     -0.309394
O       7.87903     13.65065     11.03024        -0.614930     -0.111679     -0.867504
O       7.78213      5.79781      2.40107         0.916990      0.315239      0.552457
O       7.88060      5.81069     14.99211        -0.634979      0.626899     -0.442508
O       7.82350      5.84209      6.69831         0.122983      0.195218      0.168826
O       7.75944      5.93615     10.74072         0.434578      0.135396      0.269695
O       7.82619      9.68526      2.42080         0.216399      0.321275     -0.353506
O       7.81736      9.69200     14.90048         0.326699      0.141444      0.503446
O       7.77249      9.85750      6.77561         0.270961     -0.840872     -0.331535
O       7.74546      9.58981     10.77877         0.369381      0.130884      0.294275
O      11.71164      2.00256      2.49190        -0.314490     -0.129123      0.294335
O      11.71041      1.88259     15.01162         0.130749      0.493599     -0.098307
O      11.81089     13.58947      2.55394        -1.226038     -0.058576     -0.113939
O      11.70237     13.53684     14.99617         0.894975     -0.142316     -0.209986
O      11.61721      1.85242      6.78974         0.506580      0.310596     -0.592257
O      11.63898     13.59576      6.70522         0.244896     -0.111953      0.031223
O      11.72489      2.12197     10.83937         0.295581     -0.808533     -0.113980
O      11.70372     13.59862     10.82419        -0.057009     -0.296120      0.224074
O      11.73321      5.59968      2.49052        -0.925879      0.548067     -0.153031
O      11.69343      5.83701     15.08626         0.047878     -0.152757     -0.276355
O      11.73448      5.81821      6.67736        -0.204677     -0.084060     -0.144803
O      11.72847      5.74109     10.90914        -0.182242      0.405156     -0.204784
O      11.77750      9.69748      2.44699        -0.943221      0.268994      0.663574
O      11.77045      9.79108     14.88374        -0.798270     -0.270910      0.276590
O      11.72451      9.81149      6.56609        -0.546533     -0.425863      0.019919
O      11.68058      9.74454     10.89728         0.068167     -0.095206     -0.206758
O       1.94877      3.93026      2.51183         0.057547     -0.614446     -0.081428
O       1.99330      3.83996     14.83900         0.010781      0.774003      0.718522
O       2.01072      0.01911      2.52845         0.229747     -0.073855     -0.143287
O       1.96680      0.01943     15.06296         0.141018     -1.569577     -0.352451
O      13.80061      3.83567      2.45726        -0.063717      0.024532      0.563937
O      13.68303      3.83077     15.01416        -0.215478      0.163559      0.005685
O      13.59938     15.59794      2.58691         0.249719      0.181587      0.008082
O      13.55731     15.54026     14.98213         0.315567     -0.174592     -0.235265
O       1.91125      3.83295      6.69538        -0.164881      0.073514     -0.193046
O       1.97772     15.59409      6.60474         0.048061     -0.084572      0.322393
O      13.60160      3.81151      6.49329         0.230915      0.693963      0.836121
O      13.52095     15.55962      6.63373         0.167590      0.463657      0.333860
O       1.92272      3.80465     10.93056        -0.023454      0.255739     -0.111674
O       1.97223     15.59371     10.82169        -0.089903     -0.738862      0.360783
O      13.86250      3.92940     10.83287        -0.778399     -0.456646     -0.279800
O      13.70920     15.54393     10.77595        -0.507211      0.128871      0.164233
O       1.96882      7.83208      2.44091         0.133701     -0.333754      0.303789
O       2.07637      7.72444     15.01620        -0.863779     -0.115590      0.037539
O      13.58721      7.64567      2.50635         0.331254      1.264596     -0.050333
O      13.57491      7.71952     15.04587         0.376620      0.688793      0.283353
O       1.92127      7.77395      6.83891        -0.051629     -0.385204     -0.481985
O      13.63022      7.81643      6.64792         0.403514     -0.397328     -0.388561
O       2.17302      7.76625     10.77133        -0.912309     -0.172537     -0.239382
O      13.59877      7.77515     10.84433         0.177242      0.108544      0.256800
O       1.89643     11.73281      2.56842        -0.354622     -0.517413     -0.374644
O       1.80716     11.65219     15.04832         0.148650      0.600733     -0.399695
O      13.75309     11.75772      2.52823         0.259395     -0.384691      0.118529
O      13.77577     11.63979     14.99812        -0.022799      0.568818      0.229150
O       2.01770     11.73434      6.64625        -0.333086     -0.537243      0.386126
O      13.61090     11.66234      6.77879         0.177911      0.138433     -0.458266
O       1.96582     11.69159     10.82794        -0.495027     -0.446334      0.067361
O      13.66727     11.68530     10.81987        -0.026517     -1.085627     -0.194810
O       5.92939      3.90200      2.53305        -0.405621     -1.187494     -0.208108
O       6.01360      3.82610     14.86125        -0.146098      0.384211      0.513488
O       5.71289     15.57129      2.42633         0.377909      0.153255      0.273925
O       5.74106     15.53181     14.93725         0.359691      0.442325      0.180842
O       5.94699      3.92361      6.81851        -0.334515     -0.737981     -0.458612
O       5.78789     15.54307      6.73140         0.304422      0.899713      0.198101
O       5.97626      3.86703     10.59772        -0.156870     -0.061533      0.555051
O       5.83142     15.59665     10.82560         0.162723     -0.237833      0.329056
O       5.95321      7.75835      2.31037        -0.426273      0.646484      0.514683
O       5.87360      7.81352     14.93068        -0.175955     -1.176848      0.675913
O       5.83570      7.83311      6.68698         0.415751     -0.509985     -0.363726
O       5.52838      7.77247     10.85309         0.905975     -0.389692     -0.126208
O       5.86988     11.69185      2.48028         0.215507     -0.013089      0.322602
O       5.87154     11.70668     15.02079         0.274255     -0.540482     -0.103552
O       5.82529     11.71280      6.59759        -0.010596      0.053608      0.485012
O       5.80942     11.64843     10.87478         0.652992      1.154255      0.209334
O       9.56292      3.79173      2.52074         0.334593      0.457030     -0.006952
O       9.79456      3.83478     14.93688        -0.292936     -0.054170     -0.210791
O       9.86291     15.56633      2.65877        -0.460755     -0.662896     -0.551448
O      10.01604     15.60343     14.92840        -0.948265     -0.990138     -0.189624
O       9.76984      3.90052      6.85371        -0.475751     -0.104864     -0.605495
O       9.65391     15.60580      6.76046         0.133150     -0.810713     -0.146038
O       9.76943      3.94357     10.70001        -0.526579     -0.177887      0.463052
O       9.84069      0.03533     10.90243        -0.148391     -1.045602     -0.339858
O       9.78172      7.73157      2.41700         0.358429      0.200885     -0.051537
O       9.80339      7.77026     15.01164         0.108659      0.623323     -0.360147
O       9.81117      7.74553      6.77669        -0.937803      0.822265     -0.863844
O       9.76195      7.75697     10.81226         0.251126      0.539373      0.353049
O       9.77789     11.71936      2.55560         0.100137     -0.175849     -0.151888
O       9.67923     11.70287     14.94380         0.266972     -1.108424     -0.002362
O       9.77591     11.61877      6.55974        -0.194918      0.386017      0.398821
O       9.68923     11.59282     10.77079         0.053449      0.689817      0.440135
