  # total energy = -7882.74970547 
CRSYTAL
PRIMVEC
    15.6080000000000005    0.0000000000000000    0.0000000000000000
     0.0000000000000000   15.6080000000000005    0.0000000000000000
     0.0000000000000000    0.0000000000000000   16.6239999999999988
PRESSURE
-0.528764 -0.572936 -0.426679 0.185337 -0.166122 -0.059388
PRIMCOORD
320 1
Pb       3.79890      3.81838      4.12008         0.580588     -0.156578     -0.066212
Pb       3.82353      3.81706     16.50871         0.402007      0.272280      1.251029
Pb       3.90999     15.48563      4.14613         0.066861      0.326183     -0.087726
Pb       3.99260     15.59659     16.55104        -0.714641     -0.024096      0.789986
Pb       0.03047      3.94415      4.12294        -0.301050     -0.379479     -0.223363
Pb       0.03513      3.88307     16.61979        -0.149317      0.031344      0.238864
Pb       0.03058     15.52469      4.21242        -0.198992     -0.239264     -0.499015
Pb      15.60710      0.00321     16.56555        -0.288725     -0.432508      0.230476
Pb       4.02158      3.91299      8.19301        -0.635035      0.098798      0.892248
Pb       3.87688     15.41474      8.20293        -0.126349      1.096331      0.745630
Pb      15.60769      3.91911      8.28650        -0.314845     -0.023091     -0.462624
Pb      15.51480     15.52428      8.33373        -0.110162      0.340249     -0.065293
Pb       3.88297      3.78348     12.42157        -0.154798      0.380781     -0.191644
Pb       3.96437      0.10446     12.50860        -0.176553     -0.227965     -0.307774
Pb      15.59392      4.03075     12.53153         0.018205     -0.520902     -0.068150
Pb       0.04264     15.49721     12.39049        -0.309250      0.457434      0.950266
Pb       3.96172      7.75131      3.99752        -0.173029      0.031253      0.717335
Pb       3.90244      7.83092     16.61151         0.232033     -0.265947      0.020781
Pb      15.44362      7.74395      4.11166         0.313799      0.290222      0.347306
Pb      15.59490      7.73088     16.59511        -0.135018     -0.042592     -0.300798
Pb       3.77247      7.78189      8.30329        -0.146468      0.460874      0.302364
Pb      15.57249      7.72236      8.27597         0.264202      0.829307     -0.026515
Pb       3.86686      7.73926     12.36609         0.018092      0.469783     -0.001171
Pb      15.58117      7.75263     12.37492        -0.066650      0.328977      0.259951
Pb       3.90401     11.65206      4.15512         0.165913     -0.000133      0.025842
Pb       3.84314     11.73140      0.06284         0.397047     -0.156948     -0.435847
Pb      15.59963     11.61759      4.12339         0.089459      0.096454      0.089487
Pb      15.59006     11.58043     16.54026        -0.100529      0.481998     -0.212454
Pb       3.91597     11.69835      8.42754        -0.558473     -0.494382     -0.785423
Pb       0.07565     11.74602      8.28477        -0.399255     -0.584208      0.194016
Pb       3.79217     11.65469     12.46625         0.148137     -0.272537      0.295198
Pb      15.48849     11.82917     12.51605        -0.196245     -0.194478     -0.238626
Pb       7.83534      3.93731      4.08355        -0.314225     -0.484626      0.401051
Pb       7.82815      3.83206      0.00040        -0.461613      0.379077      0.117696
Pb       7.86846      0.02543      4.20751        -0.266841      0.088534     -0.407626
Pb       7.78117     15.55740     16.52427         0.366573      0.427951      0.300418
Pb       7.90693      3.81325      8.21780        -0.650871      0.161529      0.366386
Pb       7.71603      0.01912      8.15416         0.688927      0.354349      0.956049
Pb       7.86502      3.87915     12.53556        -0.470687     -0.248679     -0.600767
Pb       7.76218     15.57989     12.32920        -0.274906      0.271587      0.163526
Pb       7.92678      7.77558      4.15947        -0.618698      0.301481      0.163282
Pb       7.66850      7.59131      0.05234         0.108205      0.033094     -0.032516
Pb       7.73722      7.72543      8.23964         0.370684      0.291410      0.564459
Pb       7.63870      7.93468     12.48447         0.203908     -0.192973     -0.462850
Pb       7.81068     11.63876      4.11224        -0.349765      0.175133      0.576528
Pb       7.81891     11.73892     16.60946        -0.459544     -0.279616      0.166849
Pb       7.94962     11.64881      8.40274        -0.291005      0.024219     -0.081667
Pb       7.77920     11.83068     12.45039        -0.060234     -0.492589     -0.145891
Pb      11.64473      3.82145      4.01693         0.483811     -0.018594      0.505534
Pb      11.64085      3.79206      0.05955        -0.119027      0.709174     -0.601834
Pb      11.77583     15.56200      4.12862         0.137785     -0.247008     -0.242524
Pb      11.75105     15.59535     16.53185         0.039187     -0.023910      0.015852
Pb      11.66928      3.84355      8.27565         0.439718     -0.147275     -0.099004
Pb      11.82078     15.58368      8.37645        -0.275995      0.143684     -0.468151
Pb      11.61398      3.92907     12.32582         0.272149     -0.311596      0.167761
Pb      11.52158      0.08836     12.47423         0.442898      0.227372      0.051089
Pb      11.67719      8.04792      4.24815         0.076958      0.148038     -0.182427
Pb      11.80016      7.75876     16.59489        -0.708979     -0.002699     -0.281519
Pb      11.71226      7.66203      8.38820        -0.250963      0.488651     -0.163685
Pb      11.75720      7.83475     12.45188        -0.049663     -0.390653     -0.716742
Pb      11.79151     11.83233      4.07628        -0.400496     -0.293190      0.836439
Pb      11.51623     11.62805      0.00977         0.596247      0.068632     -0.225440
Pb      11.58707     11.69245      8.35593         0.134224     -0.083919     -0.180414
Pb      11.68262     11.58149     12.52282        -0.134531      0.505049     -0.543906
Ti       1.88222      1.81595      2.20394         0.563443      0.532880     -0.577648
Ti       1.86113      1.86766     14.75085         0.182575     -0.046236      0.150806
Ti       1.97700     13.55040      2.23166        -0.313881      0.007912     -0.435667
Ti       1.94366     13.61100     14.80344        -0.365326      0.327511     -0.660840
Ti      13.65411      1.96417      2.10594         0.217947     -0.625606      1.559090
Ti      13.60455      2.04648     14.72255         0.030078     -0.920091     -1.109841
Ti      13.68719     13.61812      2.15809        -0.104730      0.878911      0.268019
Ti      13.59728     13.67764     14.67698         0.657877      0.306920     -0.091465
Ti       1.92363      2.00087      6.40124        -0.185085     -0.181257      0.015774
Ti       1.91154     13.74530      6.44780        -0.352395     -1.326529     -1.210894
Ti      13.68213      1.94736      6.27930        -0.730865      0.611283     -0.201747
Ti      13.61892     13.63104      6.43611        -0.321035     -0.208117     -0.823526
Ti       1.84145      1.99745     10.40452         0.272413     -0.179588     -0.346708
Ti       1.93002     13.67963     10.60256        -0.854067      0.058334     -0.653869
Ti      13.69832      1.88590     10.62710        -0.921314      0.763426      0.062914
Ti      13.58228     13.72253     10.57656         0.486681     -1.661533     -0.257303
Ti       1.92403      5.76475      2.20224         0.748234      0.042734     -1.196164
Ti       1.90718      5.83520     14.78147         0.071198     -0.617105     -0.000369
Ti      13.63928      5.86002      2.12002         0.186838     -0.661410     -0.453398
Ti      13.57490      5.90105     14.67728         0.012440     -0.556150      0.089296
Ti       1.98090      5.88455      6.36148        -1.716694      0.620916      0.166198
Ti      13.60674      5.93119      6.34477         0.067553     -1.202554      0.058827
Ti       1.91314      5.84362     10.49586         1.353052      0.069717     -0.904216
Ti      13.66778      5.73160     10.50812        -0.953096      0.921148      1.635445
Ti       1.97567      9.62819      2.15531        -0.455080      1.004456      0.393701
Ti       1.94100      9.68729     14.66262         0.160881      1.018987     -0.761496
Ti      13.61482      9.79270      2.09106        -0.038925      0.268124      0.226512
Ti      13.61051      9.83016     14.56499        -0.419273     -0.075703      0.271951
Ti       1.88232      9.79074      6.32059        -0.180851     -0.258324      1.256872
Ti      13.56900      9.78418      6.45794         0.613486      0.507176      0.076962
Ti       1.80365      9.78521     10.61657         0.635193     -0.893461     -0.748758
Ti      13.60449      9.73213     10.50176        -0.071075      0.933769      0.397093
Ti       5.79926      1.90066      2.27007         0.179138      0.110811      0.724648
Ti       5.75387      1.97682     14.73135         0.855443      0.548115     -0.729465
Ti       5.88300     13.65449      2.17461        -0.202628     -0.293612      0.535520
Ti       5.87365     13.72932     14.68972        -0.541551     -1.241860     -0.036320
Ti       5.81469      1.97301      6.40923        -0.243459      0.283323     -1.804605
Ti       5.88664     13.66114      6.41383        -0.148964     -1.199533     -0.059296
Ti       5.79444      1.92788     10.49070         0.473059     -0.153659     -0.061551
Ti       5.73889     13.57311     10.49467         0.658896      0.848951      1.550850
Ti       5.88141      5.73396      2.34720        -0.124333      0.042729     -1.244574
Ti       5.73360      5.87327     14.56612         0.408561     -0.824973      1.345696
Ti       5.82220      5.89228      6.45611         0.214859     -0.412452     -1.670315
Ti       5.89194      5.77472     10.57739        -0.646937      0.307867     -1.261964
Ti       5.81214      9.68984      2.19767         0.142997      0.572625     -0.143285
Ti       5.87284      9.78290     14.73858        -0.379354      0.448048     -0.261535
Ti       5.74515      9.77558      6.50374         0.318186      0.607613     -1.365446
Ti       5.78518      9.72910     10.48479        -0.002993     -0.359279      0.943453
Ti       9.75350      1.93308      2.16613        -0.645502     -0.362188      1.419400
Ti       9.66781      2.01424     14.64169         0.459176     -0.460672     -0.214823
Ti       9.70335     13.67866      2.15164         0.332260     -0.223191      1.821647
Ti       9.71959     13.61069     14.66241         0.429798      0.618265     -0.254599
Ti       9.78128      1.93971      6.27529         0.314347     -0.692956     -0.142714
Ti       9.75975     13.70242      6.40909         0.423856     -0.749920     -0.984151
Ti       9.64324      1.93707     10.44344         0.808493      0.298654      0.737861
Ti       9.72993     13.69784     10.56745         0.419101     -0.812522     -1.102233
Ti       9.85377      5.88480      2.25945        -0.872302      0.178414     -0.447910
Ti       9.64140      5.91240     14.54959         0.783951     -0.508164      1.344740
Ti       9.70207      5.80709      6.34761         0.297173      0.445751      0.526759
Ti       9.68348      5.80878     10.44857         0.483933      0.930630     -0.041041
Ti       9.68476      9.83376      2.29050         0.262580     -0.621961     -0.088674
Ti       9.70095      9.66060     14.70517         0.230977      0.302474      0.398645
Ti       9.65569      9.74012      6.43257         0.695087      0.246220     -0.330539
Ti       9.67985      9.72874     10.61934        -0.184753     -0.163777     -1.571217
O       1.96848      1.82792      0.41118        -0.229188      0.322801      0.351480
O       1.95417      1.80918     12.99566         0.176439      0.409641     -0.585691
O       2.00329     13.45615      0.40484        -0.047692      0.114734      0.700696
O       1.96705     13.63728     13.00081        -0.317532      0.251485     -0.670802
O      13.56782      1.86860      0.36924         0.048763      0.064100     -1.106230
O      13.56233      1.93508     12.90276        -0.048206      0.200295      0.778253
O      13.54710     13.65008      0.40314         0.290196     -0.250374     -0.227622
O      13.75175     13.71392     12.88895        -0.413059     -0.298953      0.209580
O       1.89242      1.94867      4.61356        -0.169641      0.033907     -0.225858
O       1.94082     13.75652      4.64933        -0.224548     -0.088664     -0.173977
O      13.55900      2.06186      4.46794         0.373782     -0.478404      0.761049
O      13.65146     13.68955      4.60376         0.033034     -0.146717      0.685455
O       1.84112      2.11786      8.58621        -0.104973     -0.449984      1.939066
O       1.83998     13.64888      8.79313         0.276156     -0.205225      0.132664
O      13.66402      1.92153      8.86880        -0.052074     -0.095972     -0.549825
O      13.66250     13.81242      8.73626        -0.394876     -0.223881      0.405358
O       1.94887      5.75124      0.36217        -0.286979      0.397080      1.493056
O       1.91523      5.62903     13.01186        -0.008724      0.636522     -0.273369
O      13.66363      5.89166      0.30343         0.032682      0.489618      1.097057
O      13.59110      5.82138     12.88063         0.226365      0.037613     -0.053240
O       1.66575      6.04240      4.59573         0.856726     -0.547074     -0.331640
O      13.59134      5.78449      4.57419         0.343239      0.256417     -0.508044
O       1.91751      5.87313      8.67491        -0.320119      0.087825      1.015819
O      13.66711      5.73007      8.79661        -0.146345      0.405831     -1.450495
O       1.88045      9.80913      0.34636         0.225612     -0.027971      0.340712
O       1.97198      9.61241     12.86691        -0.004632      0.412477      0.730615
O      13.58045      9.84071      0.29528         0.396675     -0.411276      1.155236
O      13.34834      9.91237     12.75722         0.479543     -0.819303      0.781816
O       1.90767      9.70694      4.57623        -0.040667     -0.100913     -0.708391
O      13.71080      9.87062      4.66877        -0.346449     -0.676197     -0.513274
O       1.95284      9.79776      8.83982        -0.279957     -0.187940      0.320057
O      13.59148      9.74643      8.76317        -0.223508     -0.164448     -1.165254
O       5.83068      2.04509      0.51031         0.309604     -0.447323     -1.076879
O       5.84263      1.90359     12.93448        -0.498112     -0.201313     -0.292085
O       5.86409     13.82323      0.42272         0.221646     -0.360183     -0.723107
O       5.87369     13.67029     12.91160        -0.046099      0.125500     -0.176167
O       5.81884      1.92058      4.57655        -0.417139      0.039826      1.468913
O       5.76704     13.63863      4.66308         0.326403      0.000974     -0.104311
O       5.79185      1.94448      8.72223        -0.001172      0.170666     -0.181458
O       5.56687     13.62658      8.78524         0.312728      0.228305     -1.387790
O       6.02114      5.74313      0.50579        -0.154167      0.281324      0.603475
O       5.78317      5.86023     12.82660        -0.239766     -0.139339     -0.669137
O       5.75368      5.70474      4.63989         0.068510      0.903181      0.301040
O       5.92792      5.75421      8.73315        -0.118298      0.383333      0.500067
O       5.81524      9.61486      0.42016         0.030561     -0.010649     -0.604338
O       5.77653      9.79913     12.95629         0.488620     -0.208405      0.449528
O       5.80221      9.90475      4.66344        -0.181203     -0.574956      0.782695
O       5.85387      9.72586      8.73910        -0.193116      0.187234     -0.706597
O       9.70039      2.00675      0.42639        -0.224991     -0.131206     -0.757963
O       9.68998      2.06101     12.79146        -0.023565     -0.186916      1.562994
O       9.65025     13.52180      0.39118         0.313665      0.469237     -0.226593
O       9.59442     13.80959     12.86615         0.404211     -0.438712      0.257428
O       9.76058      1.96834      4.45221         0.025530     -0.110843      0.984208
O       9.77174     13.55255      4.57873        -0.191136      0.534976      1.237662
O       9.57861      1.90772      8.69108         0.255480      0.103261     -0.787700
O       9.93502     13.61338      8.73868        -0.433185      0.287858      1.119716
O       9.73964      5.97226      0.50778        -0.151900     -0.055018      0.023530
O       9.85244      5.87256     12.81143        -0.506838     -0.215880     -0.307840
O       9.79876      5.61299      4.58544         0.363892      0.881136     -0.099567
O       9.73180      5.83587      8.62147        -0.381077     -0.207981      0.564719
O       9.80562      9.80559      0.52953        -0.373801      0.023861     -0.646428
O       9.70091      9.85819     12.94255         0.322349     -0.568790     -0.552090
O       9.68765      9.73078      4.57664         0.050787      0.036674      0.713070
O       9.63630      9.91461      8.77687         0.237747     -0.382481      0.461246
O       3.86507      2.03127      2.55393        -0.122632     -0.313162      0.076147
O       3.87022      1.89642     15.07299         0.118466     -0.228659     -0.528276
O       3.88553     13.66885      2.57474         0.187396     -0.390651     -0.153125
O       3.96279     13.61217     14.99879         0.046384      0.185490      0.203595
O      15.58071      1.98493      2.44235         0.278875     -0.744860      0.229352
O      15.55642      1.77025     15.00622         0.332625      0.694270     -0.002982
O       0.02740     13.56791      2.59923         0.245754      0.485112     -0.355082
O      15.56810     13.77841     15.08102         0.380380     -0.917472     -0.222026
O       3.80376      1.98506      6.71281         0.591530     -0.134485     -0.183747
O       3.78650     13.62948      6.72737         0.955267      0.182426      0.078424
O      15.53163      1.88750      6.67573         0.033747      0.585053     -0.266488
O      15.50911     13.57638      6.72233         0.850596      0.495900      0.015241
O       3.87456      1.87801     10.83095        -1.076117      0.450234      0.054731
O       3.77796     13.66900     10.91301         0.694490     -0.222195     -0.119168
O      15.57396      2.00494     10.92280         0.565900     -0.011114     -0.268930
O      15.51467     13.61645     10.95883         1.457168     -0.003617     -0.337102
O       3.96640      5.64939      2.52255        -0.972553      0.676365      0.170163
O       3.83464      5.71986     15.12223         0.604088      0.931120     -0.773031
O       0.02097      5.85699      2.47935        -0.528052      0.519302     -0.140527
O       0.00438      5.77672     15.14019         0.068758      0.741034     -0.605294
O       3.79919      5.91320      6.67001         0.949684      0.043234     -0.013963
O      15.50080      5.95718      6.76941         0.290861     -0.770980     -0.392130
O       3.91015      5.75239     10.67644        -0.881043      0.093479      0.809347
O       0.02539      5.89113     10.84693        -0.884735     -0.108244      0.067207
O       3.89189      9.75942      2.56514        -0.165278      0.131356     -0.156856
O       3.91561      9.77136     14.97516        -0.531331     -0.027878      0.266899
O       0.06634      9.69744      2.47187        -0.918104     -0.180589     -0.175294
O      15.45857      9.83752     14.77044         1.674939     -0.410790      0.563595
O       3.82364      9.74433      6.78740         0.645238      0.046754     -0.193772
O      15.51471      9.77546      6.84545         0.456046     -0.058011     -0.538839
O       3.90423      9.64921     10.86556        -0.425789      0.835692      0.048956
O      15.50516      9.60059     10.90490         0.890070      0.342825     -0.025849
O       7.71090      1.82562      2.67726         1.359356      0.129217     -0.797380
O       7.80401      2.02542     14.93341        -0.033009     -0.033344      0.361658
O       7.80670     13.61321      2.51271        -0.059876      0.301671     -0.029109
O       7.80755     13.61319     14.95566        -0.191290      0.822481      0.470106
O       7.68416      1.90162      6.62374         0.946062      0.366424      0.058817
O       7.78065     13.70403      6.82070        -0.648160     -0.295337     -0.526913
O       7.75797      1.94425     10.78751        -0.725437     -0.119341      0.325171
O       7.83474     13.69608     10.65779        -1.261695      0.080488      0.434510
O       7.84892      5.96326      2.66618        -0.053494     -0.439037     -0.229005
O       7.73730      5.92558     14.83648        -0.077945     -0.503797      0.039398
O       7.72583      5.82022      6.53110         1.133013      0.036402      0.429795
O       7.76252      5.90549     10.90492         0.258230     -0.493904      0.001656
O       7.68433      9.72490      2.59872         1.262350     -0.073778     -0.155499
O       7.86572      9.61313     14.99016        -1.448390      0.346618      0.267438
O       7.82597      9.78128      6.82750        -0.861754     -0.045572     -0.449599
O       7.75090      9.80028     10.91910        -0.634169     -0.327657      0.180226
O      11.66882      1.91536      2.43002        -0.078831      0.426769     -0.108380
O      11.63845      2.03653     15.04646         0.284978      0.027126     -0.235793
O      11.74917     13.56649      2.59846        -0.796750      0.066519     -0.773083
O      11.66874     13.62459     14.95179        -0.650373     -0.003549     -0.125878
O      11.62688      1.87295      6.63840        -0.091105      0.128090      0.072134
O      11.68882     13.68452      6.70902        -0.521794      0.191601     -0.001051
O      11.61039      1.99871     10.79352         0.501320     -0.460383      0.134266
O      11.75134     13.64910     10.96487        -1.022514      0.257995     -0.172515
O      11.78891      5.68085      2.39559        -0.720527      0.386584      0.224176
O      11.71213      5.84267     15.04266        -0.122810      0.186829     -0.266740
O      11.71961      5.87776      6.77905        -1.058572     -0.048904     -0.249987
O      11.65244      5.80836     10.77010        -0.032932      0.292591     -0.163978
O      11.68920      9.90871      2.50020         0.672981     -0.675229      0.178217
O      11.68436      9.77817     15.07011        -0.571326     -0.207156     -0.399051
O      11.63590      9.63592      6.70573        -0.293946      0.203171      0.054386
O      11.55612      9.73156     10.75103         0.667416      0.264336      0.589766
O       1.90038      3.90543      2.53945        -0.137168     -0.050242      0.174874
O       1.92795      3.83526     15.14269        -0.436950     -0.459183     -0.823683
O       2.03223     15.57928      2.45964        -0.591482     -0.350885      0.406022
O       1.99512     15.52528     15.12494         0.048165      0.536068     -0.126057
O      13.78026      3.84508      2.31114        -0.549523      0.904846      0.294373
O      13.79964      3.91894     15.05532        -0.642831     -0.610960     -0.379115
O      13.58796     15.51671      2.49367         0.415747      0.876022      0.103706
O      13.61293     15.58846     14.99880        -0.648419      0.344826      0.204442
O       1.89132      3.97614      6.64796        -0.302319     -0.220900     -0.384216
O       1.81422     15.60653      6.64397         0.267941      0.331195      0.489786
O      13.47206      3.83884      6.74111         0.812827      0.062795     -0.269176
O      13.57253      0.02999      6.69247         0.316927     -0.023561     -0.112573
O       1.76277      3.92395     10.85832         0.772389     -0.744701     -0.189490
O       1.74827      0.01490     10.66984         0.515678      0.199863      0.303724
O      13.56578      3.90160     10.89025         0.686187     -0.098218     -0.081917
O      13.74424     15.57062     10.81865        -0.458740      0.997870      0.315191
O       2.19034      7.76852      2.33749        -0.669006     -0.333730      0.104234
O       1.89179      7.84889     15.09438         0.010481     -0.919984     -0.284578
O      13.57021      7.79066      2.48090         0.057993      0.487419     -0.147043
O      13.69581      7.81852     14.80177        -0.273194      0.100271      0.547588
O       1.88605      7.88569      6.73946        -0.063490     -0.819069      0.172049
O      13.59510      7.80875      6.62238        -0.014787     -0.129068      0.250495
O       1.99006      7.77517     10.96880        -0.503119     -0.920911     -0.571881
O      13.57541      7.84608     10.80348        -0.221994     -1.376867      0.485075
O       1.99872     11.66400      2.64645        -0.075076      0.108677     -0.519282
O       1.91559     11.70082     14.90937        -0.011772     -0.800812      0.412116
O      13.71508     11.68777      2.50685         0.154172     -0.815752     -0.171331
O      13.64564     11.71110     14.89252        -0.179900      0.394714      0.065145
O       1.90740     11.67962      6.67625        -0.121343      0.442485      0.142307
O      13.51396     11.71910      6.73032         0.114331     -0.006682      0.147127
O       1.88935     11.62904     10.89665         0.035315      1.158245      0.237515
O      13.74386     11.67750     10.80835        -0.688226      0.451073      0.111996
O       5.93465      3.84889      2.63330         0.111524      0.242746     -0.198535
O       5.75501      3.83269     14.84453         0.258686      1.242573      0.388551
O       5.82276     15.54312      2.57495        -0.164192      0.377918      0.070309
O       5.93105      0.08636     15.05588        -0.217152     -1.376190     -0.233361
O       5.82284      3.98191      6.74479        -0.222013     -1.352763     -0.149135
O       5.80307      0.03885      6.72384        -0.504358     -0.897802     -0.057812
O       5.81496      3.86220     10.87879         0.142396     -0.291952      0.127718
O       5.76205     15.55042     10.84055         0.183497      0.191172      0.006029
O       5.76819      7.79695      2.52817         0.130404     -0.705243      0.164206
O       5.77104      7.72067     15.00246        -0.039976      0.487126     -0.093562
O       5.87782      7.83976      6.80020        -0.464608     -0.423896     -0.494578
O       5.72294      7.80046     10.86305         0.879260     -0.380506      0.035334
O       5.81345     11.69459      2.28454        -0.063937      0.290840      0.667943
O       5.96878     11.73411     15.09201        -0.331899     -0.501550     -0.212417
O       5.81192     11.69928      6.75315        -0.140286      0.673926      0.288496
O       5.80912     11.67780     10.80106        -0.312508      0.780674      0.105787
O       9.66426      3.89753      2.44103         0.166695     -0.297796     -0.101832
O       9.69069      4.01539     15.14009         0.118281     -0.677338     -0.813966
O       9.83093     15.53142      2.52958        -0.477783      0.342586     -0.365765
O       9.78067      0.07561     15.00983        -0.318766     -0.310906     -0.291908
O       9.71672      3.82535      6.68681         0.027894      0.538563     -0.189406
O       9.63216      0.00046      6.60990         0.008884      0.246853     -0.036768
O       9.65531      3.88414     10.74671        -0.222844      0.622169      0.111855
O       9.72246      0.05642     10.81996         0.199433     -0.931017      0.186052
O       9.80009      7.83049      2.63393         0.344882     -0.225670      0.172274
O       9.68200      7.75369     14.98659         0.827386      0.470759     -0.087782
O       9.60257      7.77935      6.60649         0.440417     -0.536999     -0.052173
O       9.60968      7.76993     10.68517         0.385717      0.390985      0.537164
O       9.65460     11.68698      2.66370         0.295797      0.301542     -0.848071
O       9.62081     11.72332     15.01274         0.603430     -0.375287     -0.244131
O       9.67510     11.74029      6.76338         0.340876     -0.337828     -0.251519
O       9.60102     11.74215     10.92033         0.717777      0.351778     -0.101488
