  # total energy = -7877.65349831 
CRSYTAL
PRIMVEC
    15.6080000000000005    0.0000000000000000    0.0000000000000000
     0.0000000000000000   15.6080000000000005    0.0000000000000000
     0.0000000000000000    0.0000000000000000   16.6239999999999988
PRESSURE
0.322655 0.283118 1.1449 -0.383554 -0.137849 -0.071044
PRIMCOORD
320 1
Pb       3.95528      3.94415      4.15144        -0.524243      0.116331      0.046814
Pb       3.99976      4.02000      0.07808        -0.311158     -0.306119     -0.506556
Pb       3.88806     15.60767      4.06601        -0.155819      0.127109      0.082897
Pb       3.80664     15.57912     16.59688         0.430631     -0.260168      0.660508
Pb       0.05105      3.85383      4.10340        -0.427028      0.323308      0.803362
Pb      15.51418      3.85234      0.00040        -0.235624      0.181529      0.056804
Pb      15.53334     15.59743      4.02385         0.815514     -0.412589      0.765181
Pb      15.53097     15.56192     16.60187        -0.013352      0.104201     -0.048719
Pb       3.76352      3.85864      8.31843        -0.026379     -0.689974     -0.021126
Pb       3.89603      0.03109      8.32485        -0.467029      0.014279     -0.266625
Pb      15.56599      3.83392      8.26101         0.295061      0.372088      0.260949
Pb       0.08540     15.57460      8.21482        -0.288734      0.170833      0.612262
Pb       3.91246      3.93257     12.38323        -0.074566     -0.318104      0.146100
Pb       3.85248     15.48644     12.33117         0.137275     -0.068935      0.112682
Pb      15.57959      3.79802     12.44012         0.225922      0.105615     -0.211280
Pb      15.54067      0.17651     12.52467         0.397503     -0.677437     -0.707989
Pb       3.84151      7.81734      4.26776        -0.100058      0.040878     -0.976981
Pb       3.83243      7.75243      0.00977         0.249733      0.192573      0.033843
Pb       0.14007      7.84192      4.17835        -0.157045      0.251130      0.058309
Pb       0.01327      7.75895      0.01417        -0.232146      0.276140     -0.350503
Pb       4.03053      7.73694      8.11586        -1.184163     -0.139738      1.352798
Pb      15.48498      7.78505      8.42121         0.727695     -0.510702     -0.113325
Pb       3.90576      7.84402     12.45815        -0.088336     -0.103088     -0.356722
Pb       0.00624      7.85991     12.52391        -0.286939      0.695665      0.289088
Pb       3.86375     11.68130      4.09521         0.132206     -0.373667      0.320615
Pb       3.90746     11.61008     16.48389        -0.238184      0.657431      0.826586
Pb      15.59288     11.65740      4.10589        -0.295482      0.098463     -0.139599
Pb      15.57003     11.75998     16.55390        -0.435330     -0.218760      0.625471
Pb       3.83081     11.65130      8.16560         0.550472      0.252217     -0.015480
Pb      15.56534     11.64479      8.32067         0.160802      0.044449     -0.426287
Pb       3.99541     11.69115     12.36826        -0.335429      0.180148      0.311590
Pb       0.11177     11.58619     12.33840        -0.898699      0.147008      0.959423
Pb       7.84897      3.81660      4.17370        -0.079419     -0.026829     -0.383210
Pb       7.85730      3.97031      0.07458        -0.741109     -0.601577     -0.715807
Pb       7.81732     15.50665      4.03272        -0.445285     -0.227045     -0.035251
Pb       7.87589      0.11100      0.04189        -0.428298     -0.809112      0.069865
Pb       7.66184      3.95282      8.29318         0.207069     -0.017364      0.525153
Pb       7.81677     15.53705      8.32969         0.123997      0.081932      0.377103
Pb       7.71848      3.84892     12.40829        -0.042491     -0.202824      0.506100
Pb       7.72283     15.57057     12.49654        -0.115418      0.297702      0.448690
Pb       7.74360      7.83551      4.15991        -0.135537     -0.221197     -0.180205
Pb       7.86654      7.93039     16.60624        -0.782276     -0.605204     -0.249172
Pb       7.79054      7.77115      8.25781         0.328404      0.428656      0.788252
Pb       7.87456      7.64753     12.32619        -0.940457      0.610108      0.733597
Pb       7.92609     11.67601      4.25444        -0.572656      0.272086     -0.406453
Pb       7.73194     11.66210      0.02879        -0.034108      0.600090     -0.244759
Pb       7.66756     11.73480      8.15320         0.423340     -0.949152      0.715485
Pb       7.73315     11.55785     12.41480        -0.240131      0.351997      0.151793
Pb      11.72515      3.94217      4.23586        -0.077542     -0.581848     -0.018217
Pb      11.76073      4.02521      0.03730         0.090992     -1.088056      0.638890
Pb      11.53306     15.54086      4.11008         0.980691      0.002185      1.025408
Pb      11.59911     15.56087      0.05408         0.283951     -0.162311     -0.299615
Pb      11.76681      3.98079      8.29951        -0.395623      0.445703      0.688413
Pb      11.67060      0.07690      8.23320        -0.327825     -0.775769      0.920269
Pb      11.82695      3.84243     12.52772        -1.322786     -0.065773      0.466468
Pb      11.85529     15.55218     12.42818        -1.062533      0.209786      0.015514
Pb      11.70538      7.56475      4.04486        -0.002578      0.681019      0.254182
Pb      11.46420      7.77470     16.60712         1.299642      0.311101      0.390873
Pb      11.60895      7.90927      8.19272        -0.481579     -0.896763      1.231856
Pb      11.61300      7.81246     12.56257        -0.306994      0.656551     -0.023685
Pb      11.59402     11.46757      4.21370         0.635688      0.195372     -0.396025
Pb      11.76581     11.75400     16.55543        -0.103985     -0.253918     -0.028322
Pb      11.94036     11.83246      8.33010        -1.118885     -0.273376     -0.117792
Pb      11.65877     11.80050     12.41896         0.235740     -0.687191      0.649442
Ti       1.98495      2.08627      2.15384        -0.675783     -0.030018      0.729036
Ti       1.94842      2.00756     14.65857        -0.667189      0.016059     -0.465938
Ti       1.94065     13.74386      2.15958        -0.105428     -0.683925     -0.650010
Ti       1.87905     13.66808     14.72268         0.523228     -0.833793     -0.909800
Ti      13.66077      1.86607      2.37786        -0.476921      2.093841     -1.271036
Ti      13.61466      1.86107     14.61227        -0.275106      0.989815      0.914410
Ti      13.64100     13.64412      2.19009        -0.027489     -1.089017     -0.442254
Ti      13.61403     13.62192     14.58289         0.207640     -0.671049      0.289594
Ti       1.88511      1.80650      6.26025         0.763856      0.834277      0.953101
Ti       1.94562     13.56619      6.46259        -0.026152      0.131691      0.319869
Ti      13.53409      1.98532      6.46724         0.835878      0.113521     -1.390902
Ti      13.62538     13.72777      6.45372         0.308546     -0.502468     -1.420455
Ti       2.00095      1.85902     10.53352        -0.828904      0.313467      0.525444
Ti       1.91118     13.52787     10.48880        -0.045006      1.503583     -0.138996
Ti      13.57881      1.97593     10.40495         0.333358     -0.150397      1.481389
Ti      13.64728     13.68191     10.55686         0.738091      0.073250      0.942031
Ti       1.81427      5.89765      2.17048         0.600998      0.066650      1.044720
Ti       1.99450      5.88987     14.52346        -0.634927      0.058809      0.610879
Ti      13.60341      5.78559      2.36598         0.159240     -0.314922     -0.910248
Ti      13.73700      5.84370     14.66842        -0.315573     -0.036472      0.894367
Ti       1.90673      5.74316      6.47830        -1.493809      0.269708      0.329987
Ti      13.63828      5.88230      6.49098         0.539965     -0.985995     -0.072728
Ti       1.66562      5.91165     10.60008         1.463015     -0.898084     -1.183043
Ti      13.42027      5.99204     10.72673         0.887709     -0.525473     -2.467808
Ti       1.97421      9.79573      2.16185        -0.103025     -1.536637      0.550430
Ti       1.88923      9.76287     14.76659        -0.795055      0.606900      0.116265
Ti      13.64344      9.68336      2.02997        -0.066648      0.556428      0.934730
Ti      13.63811      9.67663     14.80687         0.346178      0.634768      0.313889
Ti       1.93450      9.63723      6.43464        -0.831738     -0.183354     -0.715016
Ti      13.68372      9.69810      6.43767        -0.059674      0.431936     -1.208604
Ti       1.96559      9.71967     10.44232        -0.592990     -0.708674     -0.346435
Ti      13.64276      9.77574     10.39158        -0.497847      0.151515      1.684698
Ti       5.84217      1.93781      2.25957         0.225207     -0.562463     -0.643766
Ti       5.69135      1.79535     14.84559         2.298524      0.932538     -1.432415
Ti       5.75218     13.57920      2.26505         1.229114      0.159676      0.459389
Ti       5.79948     13.57739     14.54006         0.438606     -0.128991      0.221418
Ti       5.82142      1.87202      6.31335        -1.006351      0.915820      0.550356
Ti       5.89098     13.76372      6.27338        -0.833947     -1.806845     -0.679348
Ti       5.82822      1.87117     10.43720         0.315285      0.419333      0.733681
Ti       5.84005     13.60869     10.30602         0.174840      0.027856      1.528729
Ti       5.65662      5.83819      2.19738         1.092311      0.811861     -0.167529
Ti       5.79681      5.84472     14.69356         0.948555     -0.536086      0.413993
Ti       5.84528      5.73889      6.39828        -0.129243     -0.603921     -1.333034
Ti       5.59795      5.83670     10.41787         1.750987      0.038608      1.484259
Ti       5.83761      9.73245      2.16167        -0.503408     -0.086176      0.958093
Ti       5.77548      9.71068     14.63482         0.847075      0.141542     -0.066967
Ti       5.85694      9.68826      6.27551         0.940007      0.574142     -0.067596
Ti       5.79794      9.73715     10.44740         1.087154     -0.482711      0.714518
Ti       9.77995      1.89910      2.31856         0.200409      0.744578      0.265544
Ti       9.80939      1.86254     14.75414        -0.894021      0.490207     -0.888397
Ti       9.75958     13.59040      2.21651        -0.768566     -0.353696     -0.067394
Ti       9.69465     13.58695     14.69406         0.067678      0.469219      0.792953
Ti       9.60278      1.98001      6.55503         1.022288      0.582286     -2.229897
Ti       9.69996     13.65377      6.33809         0.442683     -0.649853     -1.032561
Ti       9.70485      1.90112     10.59204         0.095553      0.104896      0.757058
Ti       9.61551     13.67470     10.61717        -0.116355      0.335361     -0.193094
Ti       9.52651      5.78615      2.16644         1.005336     -0.490275      0.381053
Ti       9.78133      5.78744     14.78854        -1.151369     -0.767596     -0.238573
Ti       9.72485      5.85098      6.35372        -0.177902      0.218272      0.262127
Ti       9.62948      5.85517     10.57218         0.051530      0.017049     -0.433993
Ti       9.71902      9.64933      2.25190         1.123901      0.938462      0.050857
Ti       9.68425      9.75649     14.65822         1.213607      0.390078     -0.481178
Ti       9.75281      9.74408      6.46997        -0.824737      0.101061     -0.418882
Ti       9.70124      9.79237     10.64902        -0.176865     -0.982779     -1.344327
O       1.88394      2.18461      0.41391         0.230656     -0.330943     -0.898787
O       1.86251      1.76740     12.82366         0.305010      0.384093      1.216842
O       1.99857     13.66411      0.36938         0.333283      0.124031      0.776215
O       1.91845     13.62437     12.89440        -0.063215      0.151424      0.177148
O      13.61528      1.82744      0.59442         0.386271      0.208666     -0.173791
O      13.49790      1.96946     12.82608         0.514673     -0.169951      0.123651
O      13.75850     13.81057      0.37815        -0.502492      0.014989      1.111975
O      13.67798     13.52893     12.77832        -0.019867      0.569163      0.171776
O       2.03350      1.82515      4.52927        -0.171109      0.234810     -0.476928
O       1.66777     13.43930      4.76625         0.275830      0.472390     -1.417026
O      13.57379      2.27790      4.68939         0.332874     -1.263165      0.241001
O      13.83854     13.59920      4.68677        -0.120378      0.368058      0.017222
O       2.07020      1.83319      8.78088        -0.306852     -0.051259     -0.392743
O       2.09238     13.60866      8.69681        -0.533413     -0.398399      0.301860
O      13.69842      1.93407      8.67198        -0.341728      0.093747     -0.980677
O      13.48626     13.68237      8.79725         0.119490     -0.314552     -0.804057
O       1.78676      5.68676      0.43722         0.263079      0.549595     -1.218524
O       2.01956      6.02469     12.75338         0.151120     -0.276781      0.096029
O      13.80373      5.62242      0.60892        -0.279762      0.484803     -0.884015
O      13.47895      5.90137     12.92063        -0.015952     -0.042110     -0.957890
O       2.01332      5.89418      4.74351        -0.126720      0.101226     -0.802692
O      13.46088      5.84165      4.70514         0.229545      0.247252     -0.719418
O       1.54514      5.90014      8.74211         0.541869     -0.195507      1.445646
O      13.58602      5.79754      8.80002        -0.205864      0.326955      1.766075
O       2.06472      9.66524      0.41617        -0.137835      0.009205     -0.865905
O       1.93125      9.91889     13.00179         0.096054     -0.316987     -0.869446
O      13.76863      9.83374      0.27785        -0.422376     -0.296647      1.106804
O      13.84257      9.81212     13.10463        -0.253811     -0.224439     -2.007459
O       1.89035      9.56152      4.59290         0.289066      0.244035      0.515743
O      13.51883      9.65446      4.67276         0.101164      0.016870     -0.105278
O       1.85003      9.58287      8.65849         0.321972      0.763276      0.504460
O      13.65432      9.73132      8.61602        -0.191670      0.140116      0.132295
O       5.83360      1.75142      0.46772        -0.386690      0.408049      0.361489
O       5.85985      1.84315     13.05432        -0.585535      0.042988      0.465272
O       5.65084     13.47285      0.55242        -0.192985      0.016377     -1.702506
O       5.90487     13.72395     12.75334        -0.753181     -0.510166      1.111368
O       5.91118      1.91288      4.53326        -0.248940      0.117600     -0.258147
O       6.03224     13.51412      4.48641        -0.556731      0.770591      0.809776
O       5.79875      1.86066      8.67636         0.082628      0.253769     -0.209656
O       6.03801     13.57325      8.53869        -0.790302      0.266973     -0.208131
O       5.52568      5.82819      0.39274         0.479874      0.273229      0.302322
O       5.61827      5.76409     12.92375         0.026327      0.343075     -0.547828
O       5.77434      5.74742      4.54925        -0.100013      0.096415      0.820160
O       5.80035      5.55113      8.71100         0.052610      0.446801     -1.439953
O       5.89098      9.91870      0.38082         0.061647     -0.537477      0.134016
O       5.67221      9.79127     12.83274         0.274193     -0.361665      0.224226
O       5.93160      9.42442      4.48059        -0.112982      0.614622      0.925700
O       5.95811      9.83243      8.71873        -0.662218     -0.473990     -0.938641
O       9.77881      1.58452      0.60070         0.351828      0.301202     -1.341075
O       9.75341      1.87499     12.98651         0.124474      0.356121     -0.093591
O       9.86250     13.61785      0.43606         0.121607      0.155353     -0.361655
O       9.78326     13.56078     12.95688        -0.207302      0.100671     -1.107619
O       9.74540      2.24176      4.65925        -0.541970     -0.875570      1.448144
O       9.66739     13.55960      4.46866         0.060891      0.209711      2.020000
O       9.65732      1.66461      8.83774        -0.145372      0.437446     -1.457860
O       9.56201     13.82907      8.83464         0.451552     -0.397657     -0.318599
O       9.76012      5.85512      0.38451        -0.517060      0.028520      0.185019
O       9.85356      5.80334     13.03767        -0.343171      0.111088     -0.484243
O       9.65355      5.75535      4.55549        -0.093245     -0.027154      0.223931
O       9.63911      6.11011      8.80248         0.014065     -1.037712      0.402650
O       9.71102      9.77271      0.49743         0.069081     -0.375423     -0.755500
O       9.66609      9.67755     12.86188         0.166392      0.158883      0.762680
O       9.69759      9.75483      4.64720         0.312022      0.013019     -0.580840
O       9.48945      9.47004      8.86740         0.850515      0.880579     -0.152997
O       3.83651      1.98957      2.52575         1.327691      0.224156      0.054947
O       3.78941      1.94149     15.07749         0.373436     -0.172357     -0.099565
O       3.79257     13.52405      2.76571        -0.105574      0.554623     -0.456639
O       3.82962     13.17680     14.78251         1.322891      1.397205     -0.003159
O       0.12323      2.02053      2.56201        -1.422403     -0.742364      0.244806
O      15.57381      1.85583     14.95520         0.757964      0.340485     -0.210129
O       0.07466     13.67631      2.45802        -0.645884      0.317980      0.371113
O       0.02296     13.65344     15.06719        -0.615697      0.627842     -0.510063
O       3.85359      1.87535      6.68671         1.012246     -0.074767     -0.227462
O       3.96408     13.55137      6.59606        -0.095397      0.015755     -0.028965
O       0.01778      1.82596      6.55432        -0.568763     -0.017713      0.426794
O      15.52138     13.59234      6.96023         0.571150      0.120536     -0.390202
O       3.89501      1.90787     10.84199         0.089711      0.031608      0.121987
O       3.93999     13.58319     10.68343        -0.252259      0.161830      0.268420
O      15.60170      2.10107     10.80268        -0.404398     -0.637307      0.101190
O      15.56886     13.70816     10.76306         0.700483     -0.646263     -0.369711
O       3.83168      5.77497      2.55430        -0.190843     -0.139350      0.006877
O       3.84703      6.03168     14.97141        -0.428762     -0.122601      0.097906
O      15.60297      5.91208      2.72973        -0.769386      0.463870     -0.244352
O      15.59738      5.83098     14.85357         0.262166      0.279261      0.117136
O       3.73510      5.67594      6.82479         1.896022      0.698174     -0.019336
O      15.52544      5.56468      6.68371        -0.340104      0.882291     -0.316940
O       3.80285      5.96035     10.55852        -0.527483     -0.309012      0.630710
O      15.48789      5.86456     11.04596        -0.682836     -0.000764     -0.200300
O       3.92322      9.64238      2.59362         0.074675      0.675483     -0.190250
O       3.94640      9.82522     14.95533        -0.534883     -0.482650      0.022206
O      15.58157      9.59574      2.46114        -0.357215     -0.004416      0.073296
O      15.60088      9.68445     15.09383         0.562566      0.223645      0.206077
O       3.89885      9.55524      6.61078         0.306724      0.361522     -0.033980
O      15.58638      9.76616      6.58770        -0.292156      0.152575      0.409703
O       3.83387      9.71218     10.73394         0.541532     -0.033266      0.005161
O      15.55307      9.71024     10.80915         0.406323      0.115039     -0.269254
O       7.86287      1.83742      2.52915        -1.259048     -0.083474      0.247520
O       7.73257      1.80223     15.14520         0.183751      0.193565     -0.172969
O       7.77225     13.70763      2.30853         0.220339      0.056266      0.664922
O       7.83342     13.72249     15.00372        -0.387596     -0.526601     -0.037178
O       7.75820      2.03688      6.79890         0.324142     -0.505176     -0.459428
O       7.74430     13.45848      6.58296         1.176761      0.915238     -0.160257
O       7.77504      1.85590     10.90773        -0.597570      0.525250     -0.251423
O       7.68274     13.66224     10.85558         0.956440     -0.118520     -0.224821
O       7.64097      5.87655      2.39858         1.430091      0.060333      0.097730
O       7.70210      5.78267     14.98767         0.788159      0.244555      0.316768
O       7.71440      5.82343      6.68764         0.591889     -0.801288     -0.182000
O       7.71589      5.73830     10.97048         0.570702      0.426984     -0.562705
O       7.86627      9.64871      2.46531        -0.989299     -0.021314      0.309749
O       7.87222      9.70501     15.03787        -0.421395      0.061275     -0.115195
O       7.78747      9.61738      6.69333        -1.058433      0.154578     -0.476184
O       7.73705      9.65616     10.96753        -0.432122      0.517568     -0.033955
O      11.73814      2.02720      2.68984        -0.256335     -0.513375     -0.178246
O      11.74711      2.04231     15.02974        -0.059714     -0.348991      0.110231
O      11.73242     13.72418      2.49732         0.339125      0.004626      0.095699
O      11.77339     13.59459     14.96376        -0.254690      0.517851     -0.015548
O      11.67161      1.78898      6.75398        -0.685371      1.032489     -0.088704
O      11.65789     13.68678      6.62060        -0.441600     -0.415689      0.357264
O      11.60052      1.71144     10.72658         0.929740      0.501856      0.136009
O      11.72688     13.55147     10.93351        -0.540467      0.704646     -0.680336
O      11.61366      5.62345      2.56425         0.408664      0.604597     -0.132739
O      11.65275      5.62899     15.10533         0.817300      0.996001     -0.366420
O      11.58947      5.93195      6.74536         0.197794     -0.249747     -0.092304
O      11.59047      6.06903     10.94220         0.599083     -0.889542     -0.274645
O      11.73788      9.98917      2.40316        -0.644521     -0.685751      0.249802
O      11.77526      9.71083     15.05679        -1.677212     -0.027281      0.027769
O      11.60612      9.70802      6.75465         0.873935      0.072667     -0.105293
O      11.60901      9.82326     10.88462         1.120793     -0.207811     -0.421451
O       1.84368      4.04373      2.61639         0.797765     -1.677193     -0.066907
O       2.05311      4.02217     14.64174        -0.406622     -1.743885      0.409101
O       2.00910      0.00780      2.36776         0.118755      0.056662      0.351142
O       2.04935     15.58331     15.10799        -0.409457      0.177760     -0.726518
O      13.76800      3.91939      2.60501        -0.126503     -0.528630      0.300478
O      13.78100      3.90173     14.95681        -0.526222     -0.274925      0.002126
O      13.65343      0.04167      2.66850         0.186173     -1.003388      0.143854
O      13.68304      0.00460     14.80230        -0.082174     -0.232381      0.163419
O       1.90386      3.79875      6.77897         0.069264     -0.463717     -0.295942
O       2.07180     15.49630      6.70220        -0.738917      0.365042     -0.041420
O      13.52741      3.91247      6.83310        -0.233969     -0.697758     -0.117157
O      13.59170      0.00240      6.73645         0.528582     -0.033309     -0.215576
O       1.89436      3.93271     10.89970         0.288447      0.285527     -0.118644
O       1.96764     15.49551     10.75125         0.005330      0.736261      0.237939
O      13.36889      3.85342     10.88881         0.776633      0.759045     -0.537825
O      13.76483      0.11071     10.79103        -0.529674     -1.322863      0.296976
O       2.03100      7.78702      2.44319        -0.318342     -0.509959      0.438971
O       1.77895      7.85056     14.91992         0.922105     -0.718221      0.318761
O      13.32678      7.81265      2.33025         0.700576     -0.293406      0.365998
O      13.62628      7.77040     15.13106         0.000547     -1.473551     -0.170627
O       1.75991      7.79458      6.76902         0.402639     -0.853296     -0.301186
O      13.75296      7.69861      6.80226        -0.447465      1.301771     -0.341576
O       1.84666      7.88225     10.99223         0.103135     -0.541763     -0.550951
O      13.60187      7.90344     10.86490        -0.067522     -0.927031      0.106847
O       1.90495     11.57626      2.46633         0.085152      1.650356      0.449960
O       1.77258     11.69664     15.20750         0.681203     -0.375289     -0.932721
O      13.69281     11.76443      2.44156         0.294156      0.065297      0.121914
O      13.66365     11.78161     15.03330         0.291998     -0.244568      0.011463
O       1.95749     11.63720      6.72537        -0.000732     -0.537994      0.365763
O      13.59886     11.63419      6.69192        -0.051297      0.609571      0.572607
O       1.98163     11.63851     10.78891        -0.312901      0.183335     -0.341889
O      13.74865     11.61941     10.75609        -0.554221      0.850577     -0.412565
O       5.94677      3.86241      2.38173        -0.782158     -0.410182      0.407469
O       5.76403      3.90676     15.11756        -0.414743     -0.404633     -0.143288
O       5.71160     15.52523      2.55067        -0.028693      0.830965      0.226631
O       5.77544     15.41801     15.01212        -0.991558      0.642307      0.149686
O       5.84109      3.77196      6.60713        -0.197312      0.734333      0.252833
O       5.93876     15.59428      6.55452        -0.066847     -0.234116      0.072342
O       5.82974      3.84492     10.85832        -0.412103     -0.001245     -0.099220
O       5.83281     15.60194     10.68277        -0.268434     -0.558277      0.043430
O       5.77207      7.79385      2.40551         0.211198     -0.424639     -0.110926
O       5.93213      7.82271     15.05883        -0.532696      0.305971     -0.184839
O       5.81613      7.57687      6.70819        -0.287984      1.326389     -0.375978
O       5.90419      7.77352     10.62071        -0.670990     -0.421113      0.396152
O       5.81745     11.67337      2.59614         0.114400     -1.261592      0.089311
O       6.10171     11.65050     14.84317        -0.519537      0.155495      0.241983
O       5.88360     11.54541      6.48407        -0.457761     -0.286759      0.127622
O       5.87107     11.70292     10.69756        -0.172972     -0.250737      0.243214
O       9.64235      3.82721      2.26332        -0.427664      0.653830      0.586695
O       9.60400      3.75081     15.22169         0.695201      0.758023     -0.284750
O       9.78390     15.55526      2.73175        -0.128173      0.206038     -0.559999
O       9.86540     15.55089     14.97747         0.070424      0.172626      0.452899
O       9.78472      3.91932      6.87799        -0.396292     -0.227685     -0.180182
O       9.66467     15.56052      6.54258        -0.396894      0.270737      0.270848
O       9.74327      3.90961     10.90126         0.187732     -0.460289     -0.449415
O       9.60360     15.55830     11.06671         0.671462     -0.524518     -0.505580
O       9.87954      7.70439      2.44517        -0.403801      0.589186      0.122684
O       9.81052      7.74697     15.01880        -0.398025      0.305613     -0.109012
O       9.61073      7.79634      6.68522         0.518760     -0.898313     -0.392643
O       9.71118      7.80200     10.95199        -0.128171     -0.638108      0.499170
O       9.67680     11.74607      2.61994         0.230460     -0.947949     -0.297877
O       9.88867     11.65731     14.93050        -0.589656     -0.393400      0.301462
O       9.68296     11.65764      6.72102         0.305891      0.646545     -0.066843
O       9.63524     11.68937     10.95623         0.073984      0.661962     -0.533110
