  # total energy = -7883.16030331 
CRSYTAL
PRIMVEC
    15.6080000000000005    0.0000000000000000    0.0000000000000000
     0.0000000000000000   15.6080000000000005    0.0000000000000000
     0.0000000000000000    0.0000000000000000   16.6239999999999988
PRESSURE
-0.938574 -1.12548 -0.893921 -0.222647 0.445049 0.038498
PRIMCOORD
320 1
Pb       3.95602      3.82125      4.15223        -0.336047      0.228533     -0.357289
Pb       3.85665      3.85394      0.03946        -0.087599     -0.408822     -0.337946
Pb       3.91954     15.59851      4.14984         0.016175      0.008902     -0.203692
Pb       3.84271     15.52981     16.60635         0.216401      0.480596     -0.384727
Pb      15.47185      3.84371      4.09837         0.465182     -0.138703      0.083440
Pb      15.57996      3.84280     16.57947        -0.590862      0.001201     -0.164846
Pb       0.04296     15.58270      4.10012        -0.254766      0.470298      0.535263
Pb       0.06961     15.59735      0.00775        -0.314458      0.209871     -0.353270
Pb       3.90595      3.90428      8.30960        -0.104483      0.345239     -0.056713
Pb       3.96708      0.14873      8.37072        -0.179549     -0.492343      0.005929
Pb      15.56538      3.93197      8.23082         0.016886     -0.218075      0.020920
Pb       0.07475      0.00718      8.27170        -0.206640     -0.066709     -0.072924
Pb       3.73150      4.01181     12.56483         0.305046     -0.368754     -0.087609
Pb       3.81059     15.46530     12.44013         0.271650      0.402591      0.111930
Pb      15.56431      3.83206     12.38066        -0.364253      0.304146      0.619574
Pb       0.03498     15.59697     12.44617        -0.384742     -0.019933     -0.304486
Pb       3.75802      7.84306      4.06751         0.223707     -0.510428      0.099928
Pb       3.78639      7.71025     16.55968         0.354568      0.186836      0.649222
Pb       0.00201      7.88390      4.01733         0.065230     -0.613436      0.276244
Pb      15.58372      7.79181     16.59744        -0.178494     -0.389825      0.430555
Pb       3.97369      7.80014      8.30987        -0.012337      0.030415      0.018266
Pb      15.48983      7.79290      8.43335        -0.094497      0.033018     -0.708115
Pb       3.84357      7.85284     12.54378         0.143514      0.377571     -0.820946
Pb      15.47977      7.73515     12.46599         0.263933     -0.011398     -0.381656
Pb       3.91896     11.71130      4.14413         0.103310      0.291179     -0.520003
Pb       3.86962     11.67899     16.52800         0.408272      0.011834      0.109821
Pb      15.60396     11.81324      4.11186        -0.089980      0.106585      0.531807
Pb       0.04271     11.80455      0.08314        -0.413357     -0.074272     -0.404498
Pb       3.86475     11.77340      8.30572        -0.187367     -0.582257     -0.010302
Pb      15.45202     11.69252      8.20551         0.892467      0.106773     -0.174573
Pb       3.80334     11.80628     12.44764         0.392329     -0.690378     -0.479671
Pb      15.57305     11.53763     12.39211         0.201586      0.068988      0.108462
Pb       7.72008      3.79136      4.10615         0.505002      0.256555     -0.073484
Pb       7.61812      3.74867     16.57565         0.967187      0.502131      0.391917
Pb       7.70694     15.54390      4.09605         0.514403      0.044833      0.095243
Pb       7.77154     15.53484      0.02388        -0.281438      0.342513     -0.341041
Pb       7.75434      3.87998      8.42447         0.262803      0.003120      0.102485
Pb       7.86687     15.53991      8.42758        -0.298740      0.269747     -0.136596
Pb       7.79608      3.88098     12.51722        -0.115298     -0.287814     -0.685354
Pb       7.89981      0.06432     12.52905        -0.454235     -0.246813     -0.178892
Pb       7.69790      7.79308      3.99394         0.490578      0.303556      0.230988
Pb       7.79310      7.84379     16.53274         0.269665     -0.494326      0.329054
Pb       7.92642      7.84659      8.35209        -0.601310     -0.020949     -0.165516
Pb       7.92493      7.68619     12.50576        -0.730225      0.299700     -0.652215
Pb       7.77464     11.78100      4.04304         0.240800     -0.387337     -0.026586
Pb       7.77227     11.61759     16.54734         0.200117      0.204384     -0.205172
Pb       7.65455     11.67587      8.30308         0.512300     -0.095201      0.238760
Pb       7.78844     11.59138     12.48758        -0.272246      0.647376      0.024306
Pb      11.74777      3.96703      4.27761        -0.525565     -0.518743     -0.254057
Pb      11.76674      3.96892      0.04413         0.000914     -0.482412     -0.270402
Pb      11.66192      0.13457      4.20122         0.112602     -0.154095      0.025133
Pb      11.65414     15.56730     16.58833         0.715551      0.625958      0.099886
Pb      11.63521      3.97536      8.33048         0.217176     -0.339985      0.039804
Pb      11.48539     15.51952      8.23215         0.682361      0.609829      0.273646
Pb      11.70803      3.78342     12.45334         0.274724      0.212858     -0.415034
Pb      11.71221     15.48753     12.40057         0.369575      0.456002     -0.276984
Pb      11.76441      7.63960      3.97793        -0.730462      0.401469      0.672557
Pb      11.66047      7.76680     16.61658         0.155242     -0.082028      0.093687
Pb      11.65034      7.84162      8.13248         1.025125     -0.327742      0.643858
Pb      11.59549      7.81118     12.51825         0.717844     -0.348003     -0.843870
Pb      11.68052     11.68495      4.30993        -0.311841      0.410708     -0.287643
Pb      11.90113     11.74729     16.58589        -0.547930     -0.160330      0.132894
Pb      11.74414     11.74432      8.33512        -0.580274     -0.101373     -0.768217
Pb      11.60125     11.66263     12.33186         0.333923      0.157831      0.627310
Ti       1.94063      1.96085      2.14747         0.156418     -0.080645      0.067974
Ti       1.88695      1.93348     14.69476         0.498909     -0.059300      1.008532
Ti       1.94095     13.69378      2.21857         1.557353      0.190295     -0.697567
Ti       1.93893     13.59405     14.65606        -0.111034      0.869728      0.392688
Ti      13.65436      1.91348      2.21450        -0.532419      0.081594     -0.106746
Ti      13.60180      1.84430     14.64105         0.146064      0.616389      0.362422
Ti      13.66420     13.74014      2.23415        -0.188737     -0.078107      1.273674
Ti      13.66348     13.58681     14.61539         0.232914      0.752923      0.150594
Ti       1.96154      1.83934      6.32307        -0.387178      1.345651     -0.421653
Ti       2.03147     13.63657      6.40567        -1.005179     -0.341425     -0.551546
Ti      13.60931      1.91828      6.41481        -0.525265     -0.139001     -0.550311
Ti      13.62396     13.73806      6.39962         0.180622     -0.206035     -0.321842
Ti       1.96629      1.94633     10.55698         0.012872     -1.068127      0.011996
Ti       1.89343     13.61277     10.48561        -0.010570     -0.104390     -0.283582
Ti      13.73933      1.87610     10.43492        -1.250217      0.195136      1.228779
Ti      13.68876     13.53110     10.44201        -0.092394      1.959314      1.574609
Ti       1.92231      5.80239      2.15323         0.407183     -0.140216      0.547137
Ti       2.01760      5.81376     14.68071        -1.412422     -0.885512     -0.645133
Ti      13.61181      5.77951      2.26188         0.813588     -0.883649     -0.980223
Ti      13.69601      5.81911     14.70860        -0.103615     -1.106628     -0.139617
Ti       2.00174      5.73427      6.34611        -0.137899      0.543324      0.509303
Ti      13.71658      5.80592      6.32277        -1.234445      0.465353      0.670170
Ti       1.95138      5.71640     10.48311        -0.267339      1.411218      1.482559
Ti      13.58778      5.87122     10.53625         0.088241     -0.759386     -0.646750
Ti       1.86890      9.76751      2.18330         0.791052     -0.216081     -0.899650
Ti       1.86766      9.67584     14.74798         0.639903      0.490580     -0.742666
Ti      13.62269      9.86470      2.24676        -0.342253     -0.215033     -0.001432
Ti      13.69704      9.70254     14.74911        -0.374245      0.344921     -1.130616
Ti       1.97932      9.65301      6.44591        -0.100851     -0.013591      0.271552
Ti      13.66435      9.77891      6.27691        -0.146718     -0.750290      0.138570
Ti       1.92172      9.63117     10.44849         0.540468      0.311766      1.231016
Ti      13.58108      9.76881     10.51819         0.081285     -1.664698      0.151360
Ti       5.82399      1.92867      2.18910        -0.059762     -0.236686     -1.003776
Ti       5.83688      1.89985     14.61698        -0.965152     -0.614975      0.753283
Ti       5.87621     13.67161      2.12811        -0.815484     -0.678999     -0.138555
Ti       5.85255     13.61764     14.70533         0.401113      0.797944     -1.387917
Ti       5.82866      1.96412      6.47438        -0.069580     -0.786574     -1.277834
Ti       5.83359     13.64202      6.41471        -0.064174      0.907147     -1.334273
Ti       5.78935      1.97250     10.59162         0.547368      0.130589      0.209832
Ti       5.84986     13.74144     10.58250         0.200484     -0.464849      1.929368
Ti       5.89848      5.82811      2.13970        -0.946088     -0.000731     -0.461713
Ti       5.89406      5.83157     14.72156         0.157165     -0.735983      0.473915
Ti       5.95446      5.85429      6.36168        -0.894063      0.641320     -0.355330
Ti       5.78949      5.91486     10.49827        -0.123870      0.279663     -0.719233
Ti       5.77034      9.69880      2.17240         0.757856      0.752836      0.477976
Ti       5.88477      9.65391     14.68894        -0.839241      1.326825     -1.744995
Ti       5.89924      9.75910      6.31410        -0.797943     -0.714819      0.212279
Ti       5.76310      9.85591     10.53150        -0.401911     -1.678465      0.712279
Ti       9.73692      1.93740      2.23554         0.474656      0.221490      0.785973
Ti       9.72183      1.89836     14.67130         0.972735      0.773925     -0.728802
Ti       9.90746     13.64360      2.13766        -0.323145      0.057018      2.253983
Ti       9.79457     13.66125     14.68641        -0.628771     -0.786039     -0.987831
Ti       9.62468      1.96307      6.42041         1.723392     -0.188822     -0.097064
Ti       9.64211     13.62845      6.41669         1.594426     -0.350356     -1.143986
Ti       9.75378      1.94337     10.53782         0.434570      0.659818      0.108659
Ti       9.72573     13.62533     10.60692        -0.342834      0.066061     -0.455461
Ti       9.67326      5.86844      2.14968         0.088421     -1.397114      0.102966
Ti       9.77926      5.83527     14.62629         0.103915     -1.378458      1.029886
Ti       9.71567      5.82705      6.40449         1.134419     -0.339320     -0.981176
Ti       9.71803      5.85947     10.46824         0.703288     -1.001894      0.695149
Ti       9.75779      9.78523      2.17589        -0.123628     -0.014603      1.029998
Ti       9.87745      9.75162     14.61908        -0.666205      0.918893      1.203095
Ti       9.70946      9.74457      6.33345         0.332646      0.485604     -1.082740
Ti       9.65500      9.71844     10.49566         0.443814     -0.238806     -0.809238
O       2.03204      1.91048      0.33638        -0.534492      0.362057      1.025412
O       1.84085      1.87717     12.95463         0.256891     -0.259295     -1.520796
O       2.09079     13.70488      0.37249        -0.694610     -0.340440      0.775130
O       1.98134     13.69156     12.85631        -0.294878     -0.302120      0.388205
O      13.64837      1.87533      0.45541         0.131073     -0.029562     -0.355297
O      13.68613      1.91006     12.84066        -0.028926     -0.159944      0.435018
O      13.70742     13.61566      0.50418        -0.085263     -0.078305     -1.388130
O      13.72576     13.55086     12.84886        -0.240057      0.145309      0.474382
O       2.14620      1.95312      4.54018        -0.415789     -0.032719      0.282144
O       1.96624     13.65083      4.56967         0.121933     -0.079104      0.345560
O      13.55985      1.94769      4.58665         0.183080     -0.128877      0.411542
O      13.74627     13.69410      4.60455        -0.158498     -0.549777     -0.051522
O       1.95117      1.89554      8.77948         0.169886      0.099038     -0.213051
O       1.88982     13.72467      8.71553         0.087932     -0.332323     -0.449508
O      13.67330      1.95850      8.69848         0.300025     -0.058061     -0.666881
O      13.60913     13.57861      8.71107         0.063671     -0.281614     -1.020860
O       2.02540      5.74463      0.36290        -0.322190      0.307330      0.162293
O       1.93311      5.81795     12.86120         0.552604      0.084820      0.616988
O      13.69647      5.60252      0.46373        -0.202118      0.743436     -0.088244
O      13.68766      5.86032     12.92050        -0.058735      0.051473      0.230548
O       2.07682      5.90160      4.60718        -0.228404      0.014523     -0.879277
O      13.55743      5.71601      4.52334         0.315358      0.215877     -0.038992
O       1.94271      5.62712      8.77421        -0.186224      0.040223     -1.714084
O      13.59299      5.81640      8.70041         0.511042      0.107682      0.341132
O       1.83491      9.61406      0.36959         0.363226      0.522264      0.716106
O       1.73102      9.59451     12.97407         0.342571      0.334227      0.068717
O      13.67721      9.84619      0.45553        -0.122404     -0.354347     -0.286283
O      13.78682      9.76468     12.92618        -0.261945     -0.345406      0.427913
O       2.01634      9.59788      4.65090        -0.141945      0.103822     -0.596015
O      13.63443      9.85730      4.47890         0.442948     -0.300862     -0.031627
O       1.91845      9.67944      8.70324        -0.059000      0.415973     -0.385684
O      13.60708      9.56987      8.75712         0.316166      0.915213     -0.152217
O       6.02404      1.89902      0.34565        -0.474664      0.164022      1.052635
O       5.93170      2.00468     12.84266        -0.131389     -0.240397     -0.143273
O       5.75819     13.62899      0.32749         0.545539      0.012193      0.312697
O       5.88865     13.65547     12.87265        -0.346923     -0.339340      0.477405
O       5.72549      1.89639      4.59602         0.297804      0.322221      1.165071
O       5.76661     13.75554      4.58700         0.298783     -0.456036      0.775390
O       5.69162      1.76481      8.76397         0.509696      0.693325     -0.144570
O       6.01227     13.71218      8.86561        -0.065811     -0.477523     -2.160227
O       5.90885      5.75072      0.32694         0.076461     -0.022168     -0.291361
O       5.82976      5.76490     12.96679         0.072712      0.160059     -0.650483
O       6.00827      5.80722      4.54958        -0.438997      0.071339      0.738008
O       5.77944      5.96284      8.68251         0.312097     -0.280297      0.605683
O       5.81821      9.85148      0.42103         0.058674     -0.382433     -1.113299
O       5.80035      9.61249     12.87138         0.413061      0.477353      1.193923
O       5.96171      9.71038      4.50446        -0.363861     -0.053513      0.530284
O       5.76753      9.77875      8.75546         0.362524      0.251723     -0.251068
O       9.68410      1.72473      0.49412        -0.064985      0.267663     -0.823100
O       9.68030      1.88156     12.80926         0.382514      0.436741      1.362857
O       9.85317     13.58756      0.40391        -0.139164      0.290579     -0.704684
O       9.71404     13.51248     12.85641         0.728635      0.480894      0.424573
O       9.65033      1.88474      4.62485         0.103469      0.231658      0.282464
O       9.76315     13.57468      4.63865        -0.161115      0.251207      0.159616
O       9.77073      1.93417      8.76292        -0.497405     -0.264094     -0.201037
O       9.72430     13.61871      8.77763        -0.330770     -0.063809      0.382705
O       9.66205      5.68889      0.39023         0.633768      0.716186      0.221079
O       9.72774      5.83264     12.81664         0.010159      0.356685      0.681639
O       9.84728      5.77817      4.58373        -0.422238      0.112035      0.605469
O       9.88168      5.87887      8.70075        -0.607819      0.086011     -0.020131
O       9.97385      9.77310      0.44122        -0.702417      0.034768     -1.053693
O       9.76268      9.71983     12.85193        -0.033407     -0.264920     -0.165065
O       9.52123      9.63631      4.49691         0.819043      0.218158      1.562203
O       9.71355      9.74855      8.67684         0.008989     -0.200293      0.712131
O       3.87532      1.93343      2.39603         0.408206      0.584605      0.256860
O       3.91491      1.97221     15.08142         0.715911     -0.056613     -0.713360
O       3.94238     13.52619      2.44017        -0.740149      0.320534      0.527088
O       3.91125     13.61949     14.85261        -1.194032     -0.381323      0.340116
O       0.01854      1.90447      2.53225         0.362945     -0.033763      0.062663
O      15.59411      1.87550     15.04940        -0.267838     -0.019580     -0.057931
O       0.07658     13.88257      2.47892        -0.488728     -1.260803     -0.015445
O      15.58742     13.77074     15.08370         0.514062     -0.688282     -0.432948
O       3.89398      1.99089      6.67456         0.474062     -0.078900      0.390465
O       3.90858     13.67011      6.71678         0.017030     -0.294333      0.205684
O      15.58031      1.76142      6.55851         0.196868      0.421513      0.354282
O      15.55735     13.68166      6.66214         0.642679     -0.241431      0.401605
O       3.89700      1.83415     10.95699        -0.100677      0.666502     -0.254270
O       3.90175     13.53376     10.69115         0.030367      0.489902      0.667589
O       0.00920      1.83612     10.77693         0.426675      0.162863      0.245457
O      15.56861     13.57921     10.74337         0.570726     -0.036620      0.170578
O       3.99815      5.84534      2.40181        -0.930007      0.003344      0.355019
O       3.89456      5.72673     15.09116         0.958569      0.346937     -0.656309
O       0.04050      5.88931      2.53344         0.158174     -0.159264      0.096263
O      15.60798      5.69499     15.00989         0.518489      1.009214      0.050181
O       3.86169      5.73493      6.65433         0.867937      0.017921      0.137391
O      15.56668      5.70939      6.55847         0.294783      0.401828      0.386676
O       3.90289      5.63428     10.74871        -0.156744     -0.311401      0.515198
O       0.02911      5.84916     10.77601         0.214315      0.516323      0.111548
O       3.85878      9.74156      2.50357         0.050953      0.111174     -0.004203
O       3.82646      9.76910     14.90920         0.467950     -0.128473      0.400807
O       0.00114      9.66978      2.40487        -0.277517     -0.012326      0.722994
O      15.52734      9.59574     15.06964         1.087129     -0.055125      0.159066
O       3.96049      9.74868      6.78159        -0.441255      0.135928     -0.594905
O      15.59226      9.73438      6.61217         0.098284      0.297825      0.264835
O       3.86439      9.79621     10.90227        -0.484312      0.341547      0.042022
O      15.58853      9.62721     10.84312         0.053036      0.222299     -0.389082
O       7.66747      1.83240      2.58039         0.964448     -0.260798      0.097735
O       7.85060      1.68502     14.93845         0.001922      0.342622     -0.004733
O       7.80346     13.69207      2.47940         0.044558      0.042874     -0.210453
O       7.85893     13.75549     14.94455        -0.143618     -0.173020      0.497285
O       7.80037      1.86613      6.77602        -1.501875      0.463318      0.143384
O       7.81793     13.65668      6.67779        -1.474584     -0.296302      0.331530
O       7.83198      1.93460     10.86961        -0.428393     -0.218809     -0.285782
O       7.86833     13.67232     11.03655        -0.345552     -0.190835     -0.907311
O       7.79663      5.80230      2.38965         0.524699      0.378011      0.564053
O       7.88443      5.81795     14.99736        -0.841402      0.568642     -0.465422
O       7.81596      5.86962      6.68930         0.069266      0.044900      0.281835
O       7.78195      5.95155     10.73913        -0.165335      0.097094      0.285130
O       7.81717      9.69150      2.43305         0.117460      0.281333     -0.473878
O       7.83544      9.70349     14.91155        -0.161022      0.048061      0.478407
O       7.76770      9.87156      6.79126         0.222443     -0.954563     -0.370322
O       7.75255      9.60649     10.78579         0.332588      0.014106      0.163256
O      11.72187      2.00573      2.50254        -0.808730     -0.142632      0.224403
O      11.73300      1.87771     15.02914        -0.384563      0.508167     -0.185358
O      11.81888     13.60222      2.55056        -1.445923     -0.157619     -0.093207
O      11.69726     13.53431     14.99030         1.050813     -0.158619     -0.140033
O      11.63330      1.83897      6.79956         0.094958      0.388295     -0.622405
O      11.63994     13.61772      6.71769         0.225025     -0.303863      0.104692
O      11.72672      2.10548     10.82894         0.380984     -0.715075      0.017938
O      11.69170     13.59519     10.81964        -0.041540     -0.319598      0.186017
O      11.72092      5.58917      2.50527        -0.821730      0.649224     -0.216714
O      11.71046      5.83034     15.09034        -0.252442     -0.137330     -0.336529
O      11.72507      5.82015      6.69113        -0.041996     -0.096002     -0.260315
O      11.72293      5.74916     10.90642        -0.162323      0.349920     -0.074937
O      11.76277      9.68662      2.46622        -0.382336      0.326181      0.541417
O      11.75456      9.79673     14.89339        -0.478966     -0.186280      0.243919
O      11.73520      9.80968      6.54956        -0.724312     -0.344815      0.098858
O      11.68526      9.72937     10.88739        -0.075959      0.069279     -0.116596
O       1.95083      3.92588      2.50066         0.098471     -0.409590      0.001861
O       2.01056      3.85324     14.82540        -0.048213      0.646882      0.678534
O       1.96059      0.03680      2.52476         0.512809     -0.410620     -0.206768
O       1.95108      0.03061     15.03101         0.260575     -1.502421     -0.221155
O      13.77873      3.82406      2.45786         0.010179      0.234564      0.704716
O      13.69190      3.81776     15.02482        -0.358096      0.250120     -0.150446
O      13.59170     15.59717      2.58792         0.308954      0.279987      0.002374
O      13.55945     15.54216     14.96903         0.288275     -0.374308     -0.141830
O       1.88899      3.80988      6.70487         0.047852      0.215632     -0.180886
O       1.98406     15.60632      6.60351         0.121339     -0.580509      0.347388
O      13.60007      3.81329      6.52676         0.256620      0.783473      0.657511
O      13.51133     15.55587      6.66080         0.318236      0.328658      0.357297
O       1.90624      3.80385     10.95433         0.223497      0.255671     -0.324590
O       1.97402     15.57304     10.82412        -0.183549     -0.364287      0.337124
O      13.84801      3.93676     10.83778        -0.702050     -0.675898     -0.201303
O      13.71479     15.52186     10.76195        -0.494988      0.418918      0.174964
O       1.97483      7.80570      2.44316        -0.005774     -0.079294      0.341737
O       2.05704      7.72854     15.01482        -0.788943     -0.043176      0.023399
O      13.58915      7.62921      2.50738         0.338858      1.510944     -0.070584
O      13.57086      7.72173     15.05435         0.412508      0.640232      0.184811
O       1.93173      7.77123      6.84831        -0.026461     -0.425172     -0.544575
O      13.62852      7.82388      6.66160         0.397045     -0.526677     -0.517662
O       2.19593      7.77136     10.74272        -0.842195     -0.524023     -0.030279
O      13.59590      7.78359     10.82662         0.229832      0.074888      0.446381
O       1.86926     11.72317      2.53749        -0.133682     -0.392400     -0.253443
O       1.81924     11.65385     15.05290         0.042202      0.599977     -0.431005
O      13.73977     11.75121      2.52313         0.341320     -0.628426      0.093153
O      13.78076     11.65678     15.00012        -0.047179      0.411098      0.271381
O       2.00804     11.71332      6.66685        -0.237869     -0.083555      0.219439
O      13.61678     11.67017      6.76690         0.042251      0.111693     -0.297293
O       1.97584     11.67870     10.83381        -0.498707     -0.066843      0.004267
O      13.65291     11.66707     10.82932         0.001558     -0.650884     -0.290110
O       5.93906      3.90827      2.51025        -0.416870     -1.025313     -0.113036
O       6.01399      3.80992     14.87461        -0.207082      0.612366      0.318653
O       5.70286     15.59051      2.44367         0.457119     -0.219345      0.095523
O       5.76806     15.54454     14.95547         0.226616      0.538815      0.110626
O       5.95486      3.92066      6.81009        -0.364518     -0.761055     -0.377032
O       5.77110     15.55213      6.72595         0.415808      0.734531      0.073116
O       5.99782      3.85969     10.60972        -0.322712      0.049342      0.517098
O       5.83257     15.59045     10.83193         0.102617      0.051628      0.310127
O       5.93343      7.75714      2.29989        -0.232410      0.630627      0.529281
O       5.87632      7.80420     14.92853        -0.165384     -0.914589      0.593051
O       5.83629      7.82236      6.69035         0.357315     -0.236393     -0.412450
O       5.52024      7.78176     10.87479         1.051201     -0.674196     -0.278011
O       5.85248     11.68784      2.49516         0.186392      0.063290      0.193928
O       5.86043     11.71783     15.01780         0.342189     -0.886404     -0.096953
O       5.83582     11.71713      6.59642        -0.007726      0.118691      0.442858
O       5.81866     11.65576     10.89191         0.631082      0.941969      0.034496
O       9.55223      3.79374      2.52459         0.314984      0.242319     -0.057295
O       9.79813      3.84600     14.93448        -0.318839     -0.270087     -0.277458
O       9.86755     15.54899      2.64781        -0.530562     -0.232516     -0.548083
O      10.03931     15.58683     14.92985        -1.130650     -0.589575     -0.274096
O       9.76503      3.90260      6.84711        -0.537776     -0.179976     -0.614233
O       9.64765     15.60467      6.73396         0.201699     -0.529139      0.077574
O       9.77041      3.95349     10.70674        -0.571915     -0.335072      0.524371
O       9.84045      0.03642     10.86749        -0.145792     -1.228767     -0.183629
O       9.78760      7.75835      2.41178         0.225384     -0.271125     -0.053033
O       9.82634      7.78218     15.02164        -0.081994      0.294659     -0.343140
O       9.82563      7.73969      6.77655        -1.086019      0.925028     -0.839962
O       9.78409      7.76263     10.81919         0.064262      0.538398      0.358395
O       9.77665     11.72572      2.59288         0.071531     -0.307868     -0.316286
O       9.68112     11.70686     14.94385         0.194100     -0.958779      0.062297
O       9.78237     11.61843      6.54723        -0.193179      0.371576      0.516771
O       9.68963     11.58531     10.79260         0.063140      0.867073      0.273074
