  # total energy = -7882.73821614 
CRSYTAL
PRIMVEC
    15.6080000000000005    0.0000000000000000    0.0000000000000000
     0.0000000000000000   15.6080000000000005    0.0000000000000000
     0.0000000000000000    0.0000000000000000   16.6239999999999988
PRESSURE
-1.04059 -1.30219 -0.998791 0.188834 -0.446828 -0.055887
PRIMCOORD
320 1
Pb       3.76441      3.82801      4.14285         0.456405      0.032235      0.050387
Pb       3.77700      3.77359     16.51277         0.409151      0.175569      0.135651
Pb       3.90914     15.46018      4.22730         0.468416      0.326661     -0.550339
Pb       4.00580      0.00510     16.60574         0.055074     -0.286001     -0.396142
Pb       0.02945      3.94567      4.14791        -0.098794     -0.411902      0.047416
Pb       0.02204      3.91277      0.01463         0.073861     -0.128679     -0.589721
Pb       0.04901     15.53857      4.27795        -0.130606      0.406356     -0.759829
Pb      15.60138     15.60075     16.60305         0.300156     -0.075640     -0.034640
Pb       4.04995      3.96039      8.23473        -0.185251     -0.201487     -0.334579
Pb       3.88360     15.44060      8.28133         0.071833      0.487752      0.360331
Pb       0.03796      3.92937      8.29165        -0.066142     -0.079387     -0.327103
Pb      15.53224     15.55699      8.36695        -0.168473      0.459634     -0.168133
Pb       3.91731      3.77562     12.38339        -0.399079      0.627412      0.522669
Pb       3.97778      0.14036     12.45816        -0.548296     -0.662600      0.112999
Pb      15.56200      3.98858     12.49884         0.249695     -0.241376     -0.015955
Pb       0.00838     15.46199     12.32006        -0.285637      1.057165      1.044405
Pb       3.97250      7.71078      4.06110        -0.020881      0.154020      0.366155
Pb       3.89553      7.84591      0.03588        -0.310308     -0.309548     -0.781131
Pb      15.45603      7.72172      4.13754        -0.022766      0.204947     -0.315011
Pb      15.59181      7.75410      0.00964         0.527835     -0.186010     -0.875391
Pb       3.80302      7.80892      8.31167         0.030293     -0.245048     -0.621409
Pb       0.04561      7.76883      8.18049        -0.095141      0.025190      0.289159
Pb       3.82755      7.75630     12.39203         0.015699      0.054535      0.512234
Pb       0.01095      7.74206     12.36551        -0.213182      0.226490      0.271587
Pb       3.93598     11.61962      4.23346        -0.065580      0.141777     -1.040312
Pb       3.86805     11.70476      0.06338        -0.294967      0.119321     -0.144145
Pb       0.03285     11.61611      4.17349        -0.154308      0.185134     -0.392231
Pb      15.59957     11.55790     16.53796         0.157237      0.529625      0.123319
Pb       3.92441     11.62195      8.42885        -0.431781      0.391591     -0.084902
Pb       0.06567     11.74390      8.32355        -0.155759     -0.166374      0.016872
Pb       3.78137     11.66515     12.52304         0.212963      0.386951     -0.737815
Pb      15.42638     11.84697     12.51064         0.558958     -0.935965      0.037834
Pb       7.86668      3.98690      4.10232        -0.333544      0.025490      0.083222
Pb       7.81814      3.79556      0.06149        -0.333705     -0.044108     -0.656321
Pb       7.90348      0.04811      4.21668        -0.493768     -0.306651     -0.202885
Pb       7.80464     15.51594     16.53477        -0.750688      0.183050      0.115659
Pb       7.92511      3.84757      8.18029        -0.704980     -0.103624     -0.251994
Pb       7.70287      0.02005      8.21113         0.271731     -0.129912     -0.029997
Pb       7.84223      3.92991     12.56570         0.092400      0.239550     -0.585378
Pb       7.75516     15.58931     12.34392         0.227914      0.396187      0.076992
Pb       7.90307      7.77664      4.18072        -0.411355     -0.332373     -0.418048
Pb       7.71155      7.56781      0.08418         0.626269      0.665659     -0.549233
Pb       7.71531      7.73324      8.29092        -0.326210      0.080837     -0.314845
Pb       7.63686      7.97283     12.52799         0.174120     -0.470923     -0.357218
Pb       7.79923     11.62034      4.14614        -0.018560      0.255437     -0.645985
Pb       7.85635     11.68082      0.03209         0.103418      0.132766     -0.055036
Pb       7.92852     11.61237      8.43765        -0.733722      0.430490     -0.344867
Pb       7.76200     11.84164     12.47621        -0.294318     -0.406444     -0.415513
Pb      11.59312      3.86009      3.96522         0.484411      0.345919      0.396214
Pb      11.62449      3.72936     16.62333        -0.048797      0.543942     -0.210677
Pb      11.84692      0.00685      4.15282        -0.096304      0.150407     -0.444931
Pb      11.77886     15.59782     16.56268        -0.453214     -0.217410      0.152783
Pb      11.66385      3.76036      8.21659         0.517623      0.051644     -0.241423
Pb      11.82582     15.52827      8.37386        -0.052834      0.375066     -0.269518
Pb      11.57028      3.94436     12.32722        -0.048070     -0.329755     -0.045060
Pb      11.59155      0.08657     12.53354         0.153853      0.184259     -0.856690
Pb      11.65783      8.08961      4.23328         0.210551     -0.964901      0.065092
Pb      11.80211      7.74615     16.59657        -0.667691      0.187051     -0.506697
Pb      11.70900      7.67125      8.38154         0.214276      0.249477     -0.815254
Pb      11.81643      7.74534     12.44556        -0.337810     -0.156822     -0.331160
Pb      11.72141     11.93698      4.07937        -0.183470     -0.599154     -0.077515
Pb      11.53092     11.65332      0.05289         0.358554      0.291342     -0.534364
Pb      11.54673     11.61703      8.28063         0.348616      0.086713     -0.134630
Pb      11.68613     11.55134     12.54175        -0.154133      0.379947     -0.267024
Ti       1.88597      1.92379      2.19333         0.017408     -0.947522     -0.481402
Ti       1.85691      1.81502     14.72315         0.326763      0.611094      0.135736
Ti       1.96945     13.57982      2.27136        -0.129563      0.028627     -0.879917
Ti       1.93975     13.57037     14.68597         0.257856      0.566593      0.278670
Ti      13.60445      1.95109      2.12340         0.551251     -0.049018      0.341168
Ti      13.53709      2.04787     14.61897         0.492646     -0.416587     -0.474322
Ti      13.73188     13.63154      2.20096        -0.514633      0.588331     -0.831927
Ti      13.61215     13.71515     14.72415        -0.003661     -1.194888     -0.524468
Ti       1.89152      1.94508      6.43824        -0.207064      0.705918     -0.818599
Ti       1.87944     13.71686      6.37495         0.189289     -0.829022      0.308977
Ti      13.64721      1.99465      6.22642         0.248382     -0.185467      1.124169
Ti      13.64560     13.63387      6.40188        -0.191695      0.233809      0.472947
Ti       1.91484      1.97440     10.50986        -0.499493     -0.073277     -0.601068
Ti       1.87569     13.69150     10.57418         1.794520     -0.571720      0.026510
Ti      13.68520      1.94947     10.59964        -1.164197     -0.482072     -0.801835
Ti      13.60410     13.59150     10.58178        -0.790170      0.484912     -0.333982
Ti       1.93706      5.81006      2.18834         0.291714      0.550739     -0.269695
Ti       2.02766      5.76060     14.62976        -0.450811      0.342969      0.792200
Ti      13.61274      5.90935      2.07978        -0.379979     -0.530171      1.736186
Ti      13.64032      5.83736     14.59489         0.090546      0.497004      0.334152
Ti       1.94809      5.90900      6.27375         0.250772     -0.487265      0.393705
Ti      13.65432      5.85025      6.28527        -0.320658     -0.092498      0.339990
Ti       1.96573      5.75509     10.52607        -0.854892      0.552790     -0.473512
Ti      13.66989      5.74997     10.39786        -0.072314      0.296932      0.192587
Ti       1.87068      9.64803      2.24729         0.518637      0.731872     -0.426829
Ti       1.97025      9.72065     14.66732        -0.574510     -0.737925     -0.650275
Ti      13.56998      9.79556      2.16110         0.461471     -0.306388      0.762153
Ti      13.65563      9.74204     14.60348        -0.208600      0.065421     -0.133474
Ti       1.86875      9.81984      6.26627         0.180653     -0.587028      0.475489
Ti      13.60829      9.80543      6.43960        -0.288241     -0.496469      0.117728
Ti       1.87584      9.72309     10.60283        -0.545860      0.350055      0.622056
Ti      13.58906      9.70793     10.41186         0.773991     -0.356935      0.431052
Ti       5.83389      1.94217      2.25244        -0.777981     -0.074940     -0.789215
Ti       5.78409      2.02132     14.60717         0.319042     -0.568144      1.741124
Ti       5.85256     13.62830      2.17722         0.035467      0.170976      0.322845
Ti       5.85397     13.61938     14.59141        -0.778063      1.099290      0.812085
Ti       5.73744      1.91570      6.32232         0.615723      0.407455      0.169221
Ti       5.87146     13.59486      6.43332        -0.376898      0.834128     -0.910556
Ti       5.82751      2.01094     10.49073         0.303023     -0.312596     -0.402729
Ti       5.79378     13.70743     10.56210        -1.034914     -0.773226     -0.370752
Ti       5.85374      5.78972      2.16475        -0.336967      0.196285      2.679725
Ti       5.85026      5.89267     14.60588        -0.532900     -0.168673     -1.067486
Ti       5.90928      5.92732      6.37418        -0.724046      0.034954     -0.474972
Ti       5.81137      5.86190     10.51577         1.159583     -0.202611      0.041626
Ti       5.82047      9.68049      2.11907        -0.293444      0.279104      2.180569
Ti       5.88798      9.82435     14.71066        -0.609498     -1.127434     -0.669247
Ti       5.68605      9.91144      6.34895         0.806623     -2.047726      1.109614
Ti       5.73839      9.73498     10.49763         0.091454      1.300501      0.682732
Ti       9.66071      1.89641      2.17268         0.787523      0.037336     -0.242291
Ti       9.63155      1.91258     14.66741        -0.212839      0.762674     -1.018319
Ti       9.68940     13.72364      2.15668        -0.067113     -0.733541      0.168593
Ti       9.73418     13.65909     14.64929         0.237024     -0.543613     -0.225073
Ti       9.78690      1.78097      6.26851        -0.499513      0.873467      1.430339
Ti       9.74997     13.61412      6.31437        -0.052521      0.643727      0.572880
Ti       9.66909      2.00023     10.35255         0.710851     -0.614088      1.624241
Ti       9.77975     13.64319     10.49812        -0.167538      0.618625      0.413556
Ti       9.81560      5.88954      2.17264        -0.431833      0.491091      0.098976
Ti       9.70991      5.89683     14.58118         0.391513     -0.462126      0.006589
Ti       9.78345      5.79746      6.35927         0.396767      0.043332     -0.836012
Ti       9.72136      5.85724     10.35813        -0.636531      0.200879      1.808501
Ti       9.76491      9.80314      2.24627        -0.928418     -0.147476     -0.662520
Ti       9.73254      9.66178     14.67582         0.044197      0.157571     -0.575571
Ti       9.60499      9.68645      6.33828         0.639817      0.097707      0.307205
Ti       9.63866      9.75754     10.58871         0.055734     -0.161291      1.008778
O       1.89338      1.95907      0.35478         0.283806     -0.119750      0.862219
O       2.02849      1.94545     12.98145        -0.375919     -0.076020     -0.837525
O       1.92581     13.47488      0.48314        -0.112371      0.274260      0.092505
O       1.92137     13.64674     12.91513        -0.129464     -0.019920     -0.320747
O      13.54012      1.87468      0.32979        -0.160907     -0.136117     -0.378368
O      13.43366      2.09937     12.80548         0.396935     -0.300808      1.341743
O      13.66303     13.61660      0.39901        -0.069220      0.455721     -0.146060
O      13.58594     13.61399     12.88699         0.179990      0.028230      0.160428
O       1.72833      1.92714      4.61670         0.565284      0.128573      0.038339
O       1.73097     13.71435      4.55873         0.642488     -0.219540      0.410970
O      13.55498      1.94805      4.45024         0.265023      0.226822      0.370609
O      13.67151     13.63843      4.63193        -0.384116     -0.105922     -0.699180
O       1.80631      2.01370      8.73077         0.046785     -0.160128     -0.404145
O       1.78817     13.84429      8.79466         0.217951     -0.731839     -0.117626
O      13.62615      1.80208      8.78833        -0.126572      0.339023     -0.026484
O      13.71294     13.75445      8.79590        -0.196526     -0.104771     -0.007464
O       1.99614      5.82507      0.41401        -0.138557     -0.366088      0.229441
O       2.04809      5.58006     12.88102        -0.612119      0.524307     -0.621971
O      13.44720      5.99187      0.35655         0.362474     -0.291343     -0.949175
O      13.66439      5.87217     12.80169        -0.364657     -0.251152      0.524457
O       1.84024      5.87544      4.49601        -0.015287      0.057388     -0.542320
O      13.76275      5.88887      4.49025        -0.204953     -0.199029      0.190232
O       1.82440      5.90602      8.73910         0.311225     -0.179739     -0.439918
O      13.72433      5.65149      8.59507        -0.238359      0.618427      0.788213
O       1.89544      9.82401      0.44043         0.041054     -0.344769      0.218576
O       1.86092      9.66169     12.86561         0.550719      0.051709      0.577066
O      13.46084      9.84655      0.40949         0.239181     -0.199317     -0.436107
O      13.56199      9.67552     12.78796         0.106159      0.073589      0.913611
O       1.87118      9.81296      4.49252        -0.116028     -0.122928     -0.179095
O      13.61362      9.70226      4.66016         0.003306      0.235572     -0.311371
O       1.88353      9.67390      8.84135         0.258260      0.127786     -0.572105
O      13.66251      9.69581      8.62084        -0.157528      0.118299      0.445161
O       5.85955      1.99750      0.41677        -0.153053     -0.318171      0.910570
O       5.66690      1.96953     12.86102         0.337906      0.194912     -0.970819
O       5.98450     13.81561      0.40995        -0.675172     -0.355671      0.160223
O       5.80366     13.69595     12.81718        -0.019099     -0.264139      0.508790
O       5.65671      1.94295      4.55942         0.538256      0.168705     -0.106066
O       5.59225     13.57926      4.58542         0.755676     -0.169362      1.364374
O       5.74939      2.00145      8.71562         0.281739     -0.242174     -0.203311
O       5.83512     13.85028      8.73453        -0.214348     -0.301290     -0.181077
O       5.90245      6.00748      0.47533        -0.198333     -0.223843     -2.497858
O       5.84573      5.80777     12.76141         0.010820      0.309167      0.688878
O       5.86286      6.01359      4.59964         0.130420     -0.611312      0.096980
O       5.94465      5.90059      8.70658        -0.606202     -0.244956      0.305341
O       5.80522      9.57275      0.39398         0.102738      0.318701     -0.742684
O       5.86474      9.70158     12.86457        -0.008680      0.427291      1.271872
O       5.66713      9.88902      4.59648         0.570286      0.165458     -0.629571
O       5.63625      9.90684      8.71902         0.148187     -0.697368      0.018866
O       9.67019      2.00869      0.33976         0.056915      0.141033      0.111378
O       9.64829      2.01071     12.85818         0.072620     -0.456468      0.715458
O       9.61415     13.58445      0.36394         0.158205      0.115029     -0.095373
O       9.80786     13.75648     12.85461        -0.365460     -0.163721      0.492815
O       9.72138      1.87351      4.52207         0.089166     -0.263230     -1.312590
O       9.60844     13.80844      4.53785         0.610118     -0.698809     -0.056788
O       9.77839      2.04267      8.59123        -0.322167     -0.227108     -0.188310
O       9.73624     13.58314      8.70478        -0.284709     -0.279340      0.292554
O       9.69309      5.77736      0.36727         0.077724      0.081304      0.581426
O       9.69019      5.91639     12.79940         0.025134      0.008179     -0.225357
O       9.84357      5.93046      4.56054        -0.796949     -0.339006     -0.138003
O       9.83895      5.78370      8.59411        -0.336386      0.124404     -0.107400
O       9.71951      9.90824      0.44519         0.212310     -0.224255     -0.021234
O       9.63933      9.63764     12.79088         0.093836      0.262432      1.186657
O       9.65992      9.72709      4.55299         0.021307      0.053490      0.279292
O       9.69073     10.11350      8.82561        -0.162431     -0.816416     -0.664214
O       3.88320      2.09407      2.57815        -0.532305     -0.281629     -0.557742
O       3.92095      1.89589     14.97470        -0.853943      0.296425      0.498315
O       3.88249     13.62595      2.49344        -0.595670      0.318701      0.077554
O       3.91611     13.61644     15.08922        -0.127962     -0.034912     -0.251970
O      15.53903      1.92586      2.33324         0.126957      0.345354      0.335495
O      15.56552      1.93029     14.99381        -1.011714     -0.328915     -0.179774
O      15.52581     13.66963      2.49358         1.032223      0.051244      0.283860
O      15.59836     13.60911     14.96521        -0.784587      0.263365      0.085295
O       3.84810      1.96016      6.71906        -0.502972      0.082397     -0.142475
O       3.76931     13.60016      6.82063         0.162028      0.034513     -0.574223
O      15.56993      2.08036      6.63223        -0.267298     -0.573068      0.037361
O      15.59318     13.60955      6.73027        -0.295350      0.081199      0.048125
O       3.76761      1.99391     10.75640         0.825272     -0.240961      0.239325
O       3.87734     13.62702     10.90749        -0.940758      0.458553     -0.374187
O      15.51504      2.01126     10.89797         0.933833     -0.326835      0.181285
O      15.59525     13.63508     10.87488        -0.943465      0.129245      0.179762
O       3.86908      5.83127      2.60777        -0.070694     -0.418747     -0.489012
O       3.90717      5.84839     14.89232         0.061863     -0.453799      0.500552
O      15.51184      6.01843      2.31142         0.432891     -0.675615      0.271210
O      15.57274      5.81698     14.96009        -0.433847     -0.302944      0.181743
O       3.98765      5.99930      6.71337        -1.148003     -0.787354     -0.020088
O       0.03095      5.89773      6.56788        -0.395363      0.092282      0.096472
O       3.81188      5.84191     10.81497         1.644671     -0.141627     -0.480239
O      15.52850      5.78244     10.93098         0.218869     -0.151577     -0.578792
O       3.90050      9.73266      2.49566        -0.227551     -0.190206     -0.126654
O       3.80368      9.74939     15.05177         0.984670      0.148140     -0.052324
O      15.51613      9.65137      2.42191         0.093668      0.409235      0.279251
O       0.03796      9.72180     14.96963        -1.338111      0.061599      0.193641
O       3.78718      9.89043      6.60859         0.346249     -0.049370      0.395645
O       0.00686      9.72043      6.63232        -0.887359      0.060504      0.097481
O       3.82899      9.80638     10.98956        -0.020732     -0.605279     -0.526893
O      15.59141      9.62237     10.91550        -0.654401      0.335565     -0.543423
O       7.83325      1.91117      2.44764        -1.125215      0.174994      0.530335
O       7.67773      2.00503     14.86902         1.170338     -0.246293      0.367849
O       7.74198     13.61167      2.44373        -0.139245      0.144431      0.724096
O       7.76131     13.71928     14.92801         0.433800     -0.855916     -0.274864
O       7.80784      1.81792      6.58029        -0.738295     -0.004135      0.132229
O       7.80136     13.74844      6.58808        -0.849445     -0.292743      0.155922
O       7.73444      1.97209     10.77022         0.110432     -0.139670     -0.101621
O       7.62340     13.68818     10.89721         2.013248     -0.058556     -0.071780
O       7.76690      5.86738      2.52239         0.922768      0.284726      0.105699
O       7.75615      5.97710     14.78330        -0.179681      0.010158      0.807639
O       7.82801      5.88213      6.63302        -0.251734     -0.111715      0.341951
O       7.81177      5.82928     10.65167        -0.372560      0.347988      0.198697
O       7.85146      9.69141      2.61389        -1.485640      0.391155     -0.301007
O       7.72083      9.82668     15.13438         0.573363     -0.553608     -0.802571
O       7.67031      9.82920      6.67386         1.064394      0.006564      0.085075
O       7.60915      9.74641     10.84025         1.590366      0.512539     -0.425129
O      11.66003      1.91052      2.42111        -0.386122     -0.072657      0.131477
O      11.59220      1.97793     14.89945         0.263120     -0.061426      0.391141
O      11.60874     13.59220      2.38004         0.590833      0.335185      0.654623
O      11.66260     13.59634     15.03365        -0.061030      0.411982      0.024240
O      11.68185      1.85338      6.60884         0.869877      0.336423     -0.041855
O      11.68542     13.70049      6.71174         0.169584     -0.317099     -0.327581
O      11.55211      1.95090     10.81660         0.065012      0.164565     -0.079265
O      11.65109     13.53795     10.77045         0.321074      0.345265     -0.033447
O      11.62049      5.80991      2.55302         0.670206      0.073095     -0.529728
O      11.67166      5.94799     14.79081         0.218168     -0.098192      0.367592
O      11.67585      5.79331      6.63404         0.659005     -0.006515      0.142331
O      11.64793      5.93419     10.75150        -0.002097     -0.548183     -0.209348
O      11.62260      9.81339      2.63560         1.058502      0.592682     -0.153249
O      11.61780      9.58631     14.91587         0.771125      0.568553     -0.199336
O      11.57649      9.68494      6.69250         0.445935      0.252085      0.120964
O      11.73394      9.80852     10.76848        -0.749325      0.030288     -0.048124
O       1.85987      3.85593      2.51872        -0.214348      0.790894      0.166655
O       1.82395      3.83006     15.04779         0.623431      0.143781      0.153337
O       1.92500      0.02077      2.49799        -0.021959     -0.220491      0.106992
O       1.94204     15.51218     15.03490        -0.145304      0.496647      0.268338
O      13.48593      3.92601      2.24786         0.460722     -0.015622      0.447340
O      13.57977      3.91147     15.04086        -0.038945     -0.193269     -0.226708
O      13.63814      0.02139      2.62937        -0.294948     -0.662873     -0.640993
O      13.45498     15.60154     14.91253         0.609187      0.464943     -0.041929
O       1.92516      3.99794      6.45242         0.379850     -0.487476      0.798154
O       1.83013      0.02327      6.68183         0.155110     -0.269670     -0.175986
O      13.70596      3.86829      6.62502        -0.574775     -0.069176     -0.391445
O      13.72946     15.55635      6.62228        -0.209488      0.744770     -0.002176
O       1.87466      3.90365     10.74446        -0.163574     -0.935152      0.426714
O       1.86859      0.00404     10.86371        -0.078474      0.432376      0.064636
O      13.57899      3.85669     10.74645        -0.305451      0.827793      0.206621
O      13.58145      0.01496     10.91058         0.044010     -0.830501      0.185368
O       1.96169      7.75525      2.44941        -0.056207      0.299881      0.108269
O       1.92643      7.64875     14.99332        -0.015624      1.280448     -0.006345
O      13.53225      7.87655      2.49375        -0.322053     -0.339955     -0.081360
O      13.72551      7.80898     15.03023        -0.427230      0.101957     -0.293300
O       1.96917      7.84113      6.65360         0.002172      0.261338      0.008605
O      13.55927      7.73352      6.68961         0.274054      0.228081     -0.052964
O       1.90383      7.63820     10.90812         0.117935      1.480999      0.109411
O      13.58908      7.69194     10.68185         0.069722      0.929771     -0.047084
O       1.88984     11.65513      2.56855        -0.190650      0.350263      0.227244
O       1.90422     11.67003     14.91124         0.144348     -0.156049      0.250401
O      13.66610     11.73755      2.55115        -0.360329     -0.546164      0.240395
O      13.56848     11.67031     14.84869         0.238169     -0.659570      0.179470
O       1.82225     11.69910      6.76221         0.155940      0.285943     -0.426695
O      13.61228     11.70612      6.70957         0.107226     -0.352906      0.025524
O       1.87008     11.72600     10.88895         0.028784     -0.413791     -0.222297
O      13.69070     11.68227     10.76574         0.116612     -0.104284      0.177742
O       5.96045      3.93457      2.45081        -0.236483     -0.601575      0.389052
O       5.84727      3.96500     15.02333        -0.084844     -0.284603     -0.227842
O       5.74391      0.06793      2.64027         0.153936     -0.676165     -0.378479
O       5.84375     15.60270     14.93170        -0.209013     -0.037843      0.004176
O       5.84382      3.84021      6.64423         0.025368      0.734615      0.066734
O       5.67766     15.55558      6.59155         0.331454      0.083448      0.280724
O       5.77772      3.86976     10.87198        -0.042407      0.815726     -0.510306
O       5.77042      0.08446     10.90047        -0.046352     -0.135167     -0.212180
O       5.79562      7.76443      2.57041         0.288364      0.908539     -0.289769
O       5.72391      7.81606     14.89840         0.414131      0.075555      0.344096
O       5.81885      7.87027      6.68628         0.242142      0.417778      0.293835
O       5.83936      7.82168     10.76148        -0.623481     -0.588805     -0.032995
O       5.68691     11.70293      2.41950         0.882020     -0.438710     -0.066684
O       5.81761     11.70593     15.07327        -0.009274      0.098420     -0.339006
O       5.83878     11.74049      6.84376        -0.324172      0.532813     -0.459602
O       5.73527     11.75453     10.80831         0.207414     -0.403899      0.043381
O       9.69112      3.83627      2.56247         0.063282      0.616258     -0.294651
O       9.57911      3.94889     14.80292         0.332495     -0.370514      0.627350
O       9.65250     15.59199      2.46182         0.210139      0.212014     -0.067966
O       9.67697     15.55983     15.00904         0.427046      0.772429     -0.301566
O       9.66357      3.85226      6.54202         0.304846      0.093630      0.105190
O       9.76327     15.56222      6.67241        -0.079243     -0.171192      0.058759
O       9.62436      3.91643     10.72399         0.510695      0.371744     -0.002317
O       9.68643      0.00862     10.74580        -0.125191     -0.351237     -0.045218
O       9.82679      7.83502      2.46408        -0.404109     -0.495876     -0.008275
O       9.72079      7.80636     15.07281        -0.572611      0.050007     -0.180617
O       9.67284      7.77378      6.65095        -0.108968      0.832860      0.353661
O       9.69880      7.93791     10.65685         0.034750     -1.205087     -0.380508
O       9.67409     11.73355      2.46468        -0.015722      0.137501      0.773617
O       9.82424     11.64028     14.89932        -0.621026      0.462058      0.020185
O       9.75916     11.70341      6.59621        -0.353210      0.048860     -0.032183
O       9.62152     11.77253     11.00862        -0.085771     -0.273610     -0.382417
