  # total energy = -7879.28690518 
CRSYTAL
PRIMVEC
    15.6080000000000005    0.0000000000000000    0.0000000000000000
     0.0000000000000000   15.6080000000000005    0.0000000000000000
     0.0000000000000000    0.0000000000000000   16.6239999999999988
PRESSURE
-0.628871 -0.806971 -1.54586 0.249521 -0.365673 0.032641
PRIMCOORD
320 1
Pb       3.73948      3.83424      4.17041         0.497650     -0.011358     -1.072057
Pb       3.74668      3.73836     16.54432         0.271418      0.366763      0.176218
Pb       3.92841     15.44647      4.29566        -0.063431     -0.122836     -0.586128
Pb       4.01608      0.00721      0.04148        -0.242330      0.037528     -0.489504
Pb       0.01694      3.92251      4.16936        -0.318605      0.002610     -1.004353
Pb       0.00017      3.94667      0.01178         0.223332     -0.138130     -0.409956
Pb       0.07099     15.57429      4.31182         0.121869     -0.021424     -0.318588
Pb      15.59774     15.57668      0.02737         0.357488      0.185813     -0.832684
Pb       4.06841      4.01631      8.27567        -0.515229     -0.032507     -0.159326
Pb       3.88817     15.51985      8.39901        -0.164887      0.176413     -0.547414
Pb       0.08923      3.93650      8.27209        -0.317150      0.311613      0.278946
Pb      15.55630      0.01579      8.38987         0.396063     -0.177491     -0.503533
Pb       3.94370      3.81253     12.35811        -0.161939      0.264535     -0.170054
Pb       3.95943      0.15692     12.39639         0.081128     -0.559794      0.191002
Pb      15.53005      3.90408     12.44259        -0.190182     -0.017984     -0.578089
Pb      15.54226     15.48605     12.30062        -0.056624      0.732511      0.380484
Pb       3.97287      7.67509      4.16812        -0.251443      0.199715     -0.582132
Pb       3.88030      7.85431      0.05381        -0.001490     -0.371464     -0.041978
Pb      15.47170      7.71055      4.15155         0.142959      0.331029     -0.089624
Pb      15.60598      7.77439      0.01282         0.114660     -0.357215      0.090384
Pb       3.85502      7.83508      8.29283         0.066220      0.130070      0.152213
Pb       0.14587      7.84662      8.07136        -0.455543     -0.625889      0.626816
Pb       3.78529      7.77615     12.45199         0.225092      0.101945     -0.822324
Pb       0.04196      7.73933     12.37794         0.147180     -0.472786     -0.082011
Pb       3.97721     11.58768      4.27777         0.014008      0.558414     -0.075030
Pb       3.89156     11.66445      0.04247         0.107535      0.494952     -0.866126
Pb       0.06681     11.63224      4.21945        -0.470323      0.193133      0.070933
Pb       0.00776     11.56421     16.54831         0.275216      0.545951      0.198060
Pb       3.90593     11.54064      8.40415         0.145135     -0.161148     -0.409222
Pb       0.02925     11.72939      8.38057        -0.204918      0.203321     -0.485211
Pb       3.77658     11.69797     12.56610         0.461523     -0.197246      0.187611
Pb      15.37320     11.81412     12.49619         0.738554     -0.258565     -0.427443
Pb       7.89087      4.04332      4.12640        -0.721025     -0.316370     -0.470711
Pb       7.78268      3.75480      0.11108        -0.278111      0.023575     -0.282803
Pb       7.91569      0.05607      4.20535        -0.594818     -0.075810     -0.308308
Pb       7.80879     15.46439     16.55380        -0.137708      0.212522     -0.068730
Pb       7.90524      3.90072      8.11791         0.093447      0.026073     -0.096061
Pb       7.70049      0.00943      8.29868         0.256708     -0.126190     -0.153198
Pb       7.81770      4.01960     12.55912        -0.110979     -0.114261     -0.370830
Pb       7.76640      0.01743     12.37451         0.036990      0.136364     -0.171802
Pb       7.84040      7.77073      4.17656        -0.240206     -0.014266     -0.447127
Pb       7.80060      7.58697      0.08508        -0.059490      0.319778     -0.242439
Pb       7.68252      7.75018      8.35142         0.662442      0.244746     -0.237891
Pb       7.65317      7.98815     12.56765        -0.100917     -0.015010     -0.285824
Pb       7.77965     11.61455      4.16084        -0.195903      0.431930     -0.166122
Pb       7.89861     11.59471      0.07275        -0.478183      0.313878     -0.851093
Pb       7.85757     11.58647      8.45970        -0.504666     -0.034577     -0.083063
Pb       7.73148     11.82988     12.49914        -0.100621     -0.425331      0.454145
Pb      11.55964      3.92918      3.91996         0.476482     -0.245732      0.980535
Pb      11.61102      3.67847     16.52146         0.316231      0.720098      0.651682
Pb      11.93353      0.08735      4.16046        -0.822048     -0.078709      0.283589
Pb      11.79032     15.59450     16.61134        -0.214090     -0.099838      0.263492
Pb      11.68341      3.66160      8.12639        -0.079528      0.880557      0.613512
Pb      11.82786     15.46596      8.34359        -0.606336      0.238126     -0.501155
Pb      11.52271      3.95230     12.33616         1.239485      0.072710     -0.036172
Pb      11.70019      0.08486     12.57490         0.138443     -0.374153     -0.836244
Pb      11.65475      8.08725      4.20530        -0.211579     -0.434211     -0.409190
Pb      11.76839      7.74199     16.56872        -0.382157     -0.128440      0.567954
Pb      11.71347      7.70770      8.32178        -0.166836     -0.244841      0.027199
Pb      11.87555      7.61364     12.41341        -0.410890      0.493359     -0.050809
Pb      11.62095     12.03455      4.08827         0.486453     -0.871161     -0.079694
Pb      11.58945     11.70436      0.06683         0.252077     -0.126044     -0.210787
Pb      11.51584     11.51962      8.17705         0.653480      1.041828      0.579145
Pb      11.67714     11.53557     12.54641        -0.459619      0.095541     -0.464182
Ti       1.88583      1.88963      2.19488         0.432217      0.924587      0.190139
Ti       1.84538      1.92523     14.56838         0.137566      0.263635      1.106452
Ti       1.86788     13.65939      2.17249         1.105123      0.326400     -0.316634
Ti       1.88197     13.64432     14.60879         0.486157      0.199079      1.445589
Ti      13.66880      1.94314      2.20933        -0.472298      0.561374      0.465340
Ti      13.56208      1.91534     14.55759         1.587920      0.463674     -0.593865
Ti      13.71964     13.71613      2.12471        -0.704701     -0.597776      1.282665
Ti      13.61177     13.52962     14.67638         0.372023      0.747955      0.372333
Ti       1.87661      1.96832      6.35039         0.994070     -1.065003      0.087896
Ti       1.91945     13.53524      6.38182        -0.132293      0.763614      0.649754
Ti      13.69213      1.96044      6.32859        -0.965151     -0.059617     -0.652961
Ti      13.64282     13.63166      6.33575        -0.302121     -0.503918      1.398055
Ti       1.93166      1.88267     10.51679        -0.526649      0.119332      0.071775
Ti       2.00934     13.57712     10.53885        -0.314167      0.731502     -0.305483
Ti      13.52675      1.96154     10.48540         1.063672      0.399450      0.958078
Ti      13.49395     13.55587     10.49937         0.422077      0.718697      0.158084
Ti       1.87050      5.95899      2.16368         0.364178     -1.613995      0.500225
Ti       2.04325      5.80450     14.52703        -1.560305     -0.054718      0.634334
Ti      13.50047      5.86270      2.22735         0.688592     -0.436045     -0.465207
Ti      13.68799      5.81406     14.68762         0.362839     -1.161622     -1.249448
Ti       1.98137      5.77750      6.23214        -0.132490      0.727831      1.453319
Ti      13.68544      5.80769      6.24336        -0.277680     -0.023718      0.801953
Ti       1.95549      5.75406     10.46520        -0.293672      0.846452      0.954175
Ti      13.58786      5.87804     10.39474         1.269995     -1.625641     -1.395047
Ti       1.87392      9.83981      2.27873         0.276823     -1.150587      0.183113
Ti       1.91107      9.65038     14.68359         0.680342      1.437568     -0.598404
Ti      13.58932      9.76161      2.32695        -0.480370      0.743903     -0.800772
Ti      13.62699      9.62946     14.75922         0.189655      0.064264     -0.803962
Ti       1.89864      9.73908      6.29871         0.852100     -0.189857      0.118986
Ti      13.59104      9.71378      6.38239         0.990439      0.314920     -0.354079
Ti       1.84842      9.76658     10.53356         1.363145     -0.578305     -0.350457
Ti      13.67814      9.68677     10.41545        -0.605864      0.423194     -0.326440
Ti       5.74831      1.93217      2.22139         0.487984      0.307830     -0.393204
Ti       5.84666      1.98129     14.63972        -0.501767     -0.488627      0.613364
Ti       5.81180     13.64687      2.28746        -0.150968      0.335713     -0.522716
Ti       5.74466     13.63742     14.69295        -0.058726     -0.460128     -1.232914
Ti       5.72425      1.95501      6.25237         0.503009     -0.181730     -0.035534
Ti       5.78323     13.62114      6.39454         0.441102     -0.539122     -1.303529
Ti       5.93754      2.09351     10.38782        -0.073334     -1.081324      0.445737
Ti       5.82850     13.73344     10.58814        -0.083059     -0.338083      0.192578
Ti       5.79491      5.91103      2.10742         0.427257     -1.101769      0.265642
Ti       5.91711      5.89348     14.66290        -0.609748     -1.284425     -0.118041
Ti       5.85368      5.88408      6.28072         0.117388     -0.135953      0.390154
Ti       5.91575      5.94854     10.42543        -2.141601      0.746071      0.068319
Ti       5.78735      9.78950      2.24886         0.338894     -0.846395      0.000542
Ti       5.82890      9.69807     14.75618         0.276702      1.738352     -1.607769
Ti       5.87761      9.73834      6.33232        -0.686320      1.348450      0.312487
Ti       5.75445      9.89734     10.64246        -0.059519     -1.158304     -0.377417
Ti       9.67823      1.87831      2.19177        -0.835111     -0.021160     -0.323182
Ti       9.70283      1.90009     14.59417        -1.048617     -0.561043     -0.110913
Ti       9.68001     13.64383      2.22792        -0.012810      1.299604      0.412900
Ti       9.80838     13.63632     14.63583        -0.835043     -0.260638     -0.281962
Ti       9.69071      1.80044      6.38757         0.855390     -0.049219      0.064016
Ti       9.66308     13.59485      6.28670         0.412882      1.250130      1.186906
Ti       9.78032      1.95145     10.50492        -0.599111     -0.328543     -1.193165
Ti       9.72846     13.62792     10.50104        -0.251459      0.313017      0.600121
Ti       9.70412      5.91970      2.08791        -0.209074     -0.671760     -0.041494
Ti       9.80942      5.81834     14.61798        -1.452536      0.811527     -0.052074
Ti       9.88934      5.83861      6.30048        -1.318364      0.450888      0.672925
Ti       9.64894      5.96383     10.48955         1.219803     -0.616836     -0.744882
Ti       9.65801      9.73707      2.10613         0.911593      0.455780      1.242122
Ti       9.75739      9.67191     14.62099        -0.947096     -0.085591     -0.184071
Ti       9.72621      9.75009      6.35900        -0.871077     -1.141357     -0.880844
Ti       9.73073      9.78328     10.57121        -0.292161     -0.507035     -0.345335
O       1.85383      2.05283      0.41515        -0.305956     -0.188140      0.092257
O       1.88786      2.05740     12.83014         0.359600     -0.185280     -1.211239
O       1.76475     13.74727      0.35531         0.023506     -0.156687      1.280213
O       1.87943     13.58501     12.84736         0.153187     -0.117030     -0.541900
O      13.48572      1.91595      0.44774         0.100312      0.221258     -1.084867
O      13.52554      2.06984     12.74875        -0.159295     -0.412941      1.508152
O      13.74331     13.81064      0.37285        -0.148639     -0.490779     -0.763919
O      13.44881     13.44452     12.91239         0.003613      0.216506     -0.541031
O       1.92506      1.99632      4.50763        -0.405507      0.227524      0.640791
O       1.92633     13.55070      4.60523        -0.329787      0.346643     -0.161313
O      13.72491      1.87303      4.49505        -0.106935     -0.164365      0.538360
O      13.52220     13.68245      4.60019         0.623566      0.198691     -1.188695
O       1.82277      1.78010      8.74490         0.283070      0.413447      0.023419
O       1.88545     13.56101      8.73896        -0.128729      0.461560     -0.157804
O      13.50613      1.94772      8.70126         0.296751     -0.347353     -0.764859
O      13.56693     13.65417      8.73952         0.445348     -0.048104     -0.533470
O       1.94222      5.78191      0.39407        -0.142215      0.783355     -0.335090
O       1.81364      5.98806     12.76131         0.444091     -0.635706     -0.292841
O      13.52633      5.79860      0.41353        -0.180311      0.297467     -0.241574
O      13.60275      5.86813     12.81978         0.260698      0.317166      0.536916
O       2.09395      5.78188      4.50185        -0.464080     -0.079975     -1.256130
O      13.72052      5.88932      4.46375        -0.310859      0.005611      0.003363
O       1.93464      5.79713      8.71643         0.122699      0.196484     -1.235077
O      13.65650      5.90691      8.56616        -0.105134     -0.372658      0.844074
O       1.88404      9.63607      0.49724        -0.060980      0.129544     -0.086289
O       1.98709      9.80160     12.88684        -0.673891     -0.152222      0.217744
O      13.49806      9.69030      0.50174         0.131029     -0.047615     -0.283084
O      13.92738      9.39491     13.00794        -0.859793      1.078887      0.204251
O       1.86196      9.84344      4.53294         0.227130      0.098488     -0.591705
O      13.51609      9.58750      4.56329         0.202800      0.483272      0.141130
O       1.95974      9.71938      8.71142        -0.077134      0.254323     -0.339122
O      13.61833      9.71617      8.63544        -0.091882      0.257163      0.149773
O       5.75436      1.70738      0.37697         0.309854      0.776947      0.756433
O       5.85262      2.14123     12.85117        -0.038634     -0.436799     -0.484383
O       5.70374     13.56795      0.40373         0.416424      0.394396      0.548863
O       5.63764     13.57206     12.83861         0.380379      0.470813      0.673035
O       5.77117      2.01328      4.45201        -0.380304     -0.295095      0.706557
O       5.69153     13.46733      4.51290        -0.237373      0.741276      1.660616
O       5.92027      1.91602      8.62007        -0.343299      0.273461     -0.163595
O       5.96722     13.79974      8.82072        -0.050445     -0.308950     -1.383846
O       5.66620      6.00812      0.33270         0.493540      0.059087     -1.198902
O       6.01529      5.89236     12.80812        -0.068315     -0.536994      0.624392
O       5.99389      5.97809      4.49732        -0.421464      0.049983      0.341090
O       5.60165      5.97554      8.59231         0.786956      0.100348      0.923277
O       5.79919      9.83045      0.45290        -0.092237     -0.129537     -0.801719
O       5.88746      9.83092     12.85563        -0.180847     -0.501612      1.014517
O       5.80782      9.82096      4.53451         0.091919      0.072705     -0.317661
O       5.57439      9.70921      8.84451         0.443237      0.512533     -0.809502
O       9.61954      2.09734      0.37221         0.284767     -0.229623      0.151944
O       9.65759      1.74153     12.76726         0.305340      0.736261      1.180843
O       9.63697     13.69362      0.46309        -0.092696     -0.673804     -1.014119
O       9.91361     13.60645     12.85261         0.047901      0.308892      0.239959
O       9.73578      1.65305      4.61933        -0.326968      0.393933     -1.009023
O       9.84660     13.76934      4.55789        -0.518597      0.196052     -1.070991
O       9.84657      2.03312      8.65925        -0.413339      0.170321      0.130716
O       9.38383     13.42336      8.77739         0.719818      0.141902     -0.843938
O       9.72257      5.65580      0.29884         0.064284      0.766740      0.320838
O       9.49524      5.89127     12.77498         0.464807     -0.015155      0.350959
O       9.47443      6.06760      4.55638         0.616244     -0.324306     -0.104633
O       9.77605      5.79030      8.70560        -0.236501     -0.238464     -0.354234
O       9.80289      9.90063      0.34823        -0.041248      0.136196     -1.024878
O       9.62761      9.52974     12.82937         0.314860      0.453539     -0.093586
O       9.66070      9.64656      4.53849         0.118566     -0.009900      0.639237
O       9.67962      9.78965      8.72859         0.411436      0.829267     -0.506465
O       3.82525      1.98656      2.34822        -0.633490      0.188770      0.535181
O       3.77530      1.97789     15.00789         0.526222     -0.094259     -0.426754
O       3.78887     13.67222      2.56409        -0.477387     -0.253429     -0.313589
O       3.76806     13.64408     14.96039        -0.235926      0.207134      0.186408
O      15.48926      2.07319      2.44485         0.940511     -0.436283      0.005018
O      15.51115      2.07610     14.88218        -0.982109      0.300783      0.212587
O      15.56902     13.78789      2.55159        -0.325227     -0.249138      0.151293
O      15.53004     13.54949     14.84260        -0.325623      0.068567      0.222325
O       3.86268      1.97182      6.58078         0.239310      0.354774      0.128492
O       3.84467     13.65033      6.64042        -0.258486      0.113186      0.402149
O      15.58144      1.96463      6.73168         0.066780      0.068735     -0.283819
O      15.59354     13.67312      6.73557        -0.164769      0.343412     -0.216077
O       3.93322      1.90255     10.76347        -0.175294      0.483517      0.034569
O       3.89026     13.82297     10.62351        -0.367443     -0.644669      0.448924
O      15.53687      1.83228     10.82962         0.299306      0.267319     -0.307583
O      15.48278     13.71633     10.82838         0.325401     -0.693108     -0.043212
O       3.99414      5.99190      2.38991        -2.757366      0.472596      0.878739
O       3.80541      5.79493     14.79358         2.259577      0.415203      0.190438
O      15.48606      5.78671      2.38624         0.099714      0.592102      0.376220
O      15.59926      5.73691     14.83948        -0.994556      0.504319      0.634057
O       3.82873      5.78294      6.55258         1.415992      0.337473      0.089403
O       0.05582      5.81923      6.46266        -0.422702      0.032633      0.353349
O       3.85802      5.93415     10.75264         0.540166     -0.271845      0.443329
O      15.58394      5.68491     10.64158        -0.424833      0.498903      0.609531
O       3.81981      9.63753      2.47785         0.224863      0.554716      0.225438
O       3.87789      9.75416     15.01570        -0.007766     -0.554339      0.252458
O      15.53718      9.81879      2.60725        -0.667052     -0.539862     -0.248257
O      15.59711      9.63072     15.20681        -0.541431      0.253706     -0.593307
O       3.87730      9.90158      6.58428        -0.411817     -0.328712      0.092599
O      15.59282      9.63099      6.50961        -0.515388      0.144639      0.404137
O       3.83073      9.75049     10.88686        -0.123327      0.503291      0.264719
O      15.59269      9.86793     10.66503        -0.925821     -0.282482      0.489721
O       7.65973      2.13055      2.51500         0.789806     -0.467956     -0.059186
O       7.76045      1.80400     15.03883         0.578059      0.454293     -0.567409
O       7.69379     13.71131      2.71336         0.444592     -0.344455     -0.633277
O       7.71439     13.49607     14.83520         0.196858      0.733171      0.343926
O       7.76259      1.84151      6.56572        -0.023302      0.436625      0.236773
O       7.75513     13.70565      6.48060        -0.210806      0.058482      0.161978
O       7.79487      1.94796     10.71021        -0.266183      0.079471      0.196602
O       7.81638     13.60845     11.01275        -0.517698      0.401531     -0.163367
O       7.77812      5.92441      2.36663         0.552790     -0.206979     -0.001367
O       7.69670      5.82822     15.14359         0.546274     -0.218735     -0.534781
O       7.69192      5.95486      6.79766         0.465808      0.002660     -0.379865
O       7.75347      5.90906     10.59055         0.032522     -0.161488      0.034157
O       7.78420      9.88095      2.38060        -0.432519      0.203962      0.273260
O       7.80733      9.84023     14.84136        -0.856835      0.117680      0.920706
O       7.79815      9.85350      6.57161        -0.485882     -0.399445      0.521722
O       7.78704      9.86886     10.62963        -0.551665     -0.362310      0.751421
O      11.50479      1.90717      2.54182         0.949571      0.109592     -0.148462
O      11.59339      1.89177     15.01142         0.094972     -0.199538     -0.624650
O      11.64831     13.84187      2.46167        -0.121785     -0.736454     -0.107838
O      11.69439     13.70405     15.14984         0.143408     -0.333703     -0.267339
O      11.65667      2.01681      6.56113         1.035057     -0.558013     -0.098566
O      11.70020     13.61373      6.59878        -0.048022     -0.312682      0.699347
O      11.67527      1.92435     10.79439        -0.695732     -0.177711      0.426618
O      11.62333     13.64345     10.55532        -0.225366     -0.231956      0.585136
O      11.56770      5.95875      2.50129         0.225481     -0.154040      0.126553
O      11.59310      5.99629     14.73392         0.390605     -0.078790      0.345496
O      11.70677      5.77110      6.47279         0.501244      0.585638     -0.013967
O      11.72505      5.79130     10.68945        -0.769266      0.650489      0.793168
O      11.57011      9.88400      2.56805         0.313724     -0.514468     -0.007672
O      11.67450      9.71895     14.69272         0.597915     -0.370392      0.796589
O      11.64518      9.78391      6.65072         0.554470     -0.215837     -0.185149
O      11.66076      9.75734     10.85982         1.042904     -0.205504     -0.005041
O       1.81039      4.01017      2.53252         0.709175     -0.798582      0.118372
O       1.95020      3.94630     14.89054        -0.374554     -0.461137      0.226139
O       1.83041      0.02725      2.61584        -0.016976     -0.013410     -0.348141
O       1.74919      0.09052     14.96071         0.063818     -1.234610     -0.296909
O      13.47942      3.88459      2.52459        -0.138704      0.245889     -0.135541
O      13.37397      3.95158     14.88507         0.402167     -0.668279      0.346041
O      13.53484      0.00652      2.39029         0.548194      0.285659      0.460656
O      13.65682      0.00985     14.78682        -0.501120      0.013518      0.307324
O       2.01804      3.86799      6.77587        -0.614630      0.034945     -0.525616
O       1.92033      0.06376      6.64791        -0.204321     -0.568772     -0.179773
O      13.69472      3.88503      6.46159         0.119390      0.266694      0.474328
O      13.64485      0.04436      6.61917         0.011317     -0.606242      0.284728
O       1.99349      3.89251     10.78626        -0.057751     -0.897163     -0.018742
O       2.02332     15.57953     10.95064        -0.779717      0.390282     -0.429283
O      13.52155      3.87748     10.69264         0.420822     -0.006641      0.250233
O      13.45989     15.57314     10.95427         0.368576     -0.457132     -0.444647
O       1.75332      7.76508      2.65320         0.423823      0.612836     -0.517561
O       1.95402      7.83515     14.83466        -0.280013     -1.227240      0.708409
O      13.44113      7.80859      2.51680         0.674313      0.246105     -0.081688
O      13.56581      7.67480     15.08799         0.391138      1.261173      0.205034
O       2.00907      7.79927      6.46933        -0.156565     -0.412223      0.428487
O      13.67859      7.77493      6.69926        -0.440747      0.087827     -0.580572
O       1.89417      7.87241     10.79815        -0.179945     -0.407290      0.045168
O      13.65968      7.79932     10.66956        -0.016154      0.045518      0.483292
O       1.73511     11.72930      2.51276         0.572124      0.032121     -0.482669
O       1.90741     11.67056     15.04940        -0.304744      0.050659     -0.017733
O      13.52537     11.74423      2.55337         0.380355      0.380556     -0.345828
O      13.59511     11.61674     15.01099         0.050724     -0.286779     -0.043374
O       1.75112     11.63895      6.62791         0.292348      0.752359      0.287491
O      13.79038     11.68091      6.66293        -0.548998     -0.397596     -0.191135
O       1.93626     11.73199     10.76854         0.022857     -0.051897      0.344044
O      13.59640     11.61204     10.91543        -0.119090      0.373605     -0.203849
O       5.74642      4.01828      2.41920         0.182137     -1.060303     -0.010405
O       5.92160      3.80687     14.95909        -0.386303      1.306238      0.294786
O       5.68737     15.56044      2.51980         0.244194      0.615118      0.250486
O       5.62299      0.04269     14.86076         0.653280     -1.114172      0.150854
O       5.89664      4.00740      6.53357        -0.281529     -1.091299      0.312883
O       5.71936      0.02833      6.62492         0.129802     -0.445905     -0.241640
O       5.83160      3.95213     10.58051        -0.115344      0.570850      0.371112
O       5.83089      0.00439     10.81477         0.518938      0.982392      0.436811
O       5.90493      7.82955      2.47358        -0.076732      1.436700      0.224364
O       5.89518      7.76994     14.86629        -0.354667      0.908635      0.279200
O       5.77903      7.95089      6.62714        -0.080298     -1.532755      0.039846
O       5.76439      7.90420     10.82704         0.638875     -1.403372      0.095016
O       5.86007     11.75020      2.57477        -0.601311     -1.271934     -0.258789
O       5.58759     11.71496     14.87457         0.443173     -0.587602      0.731086
O       5.68977     11.74133      6.74841         0.811785      0.152591      0.043212
O       5.75216     11.78247     10.84293         0.061281     -0.192633     -0.174272
O       9.72437      3.98686      2.55264        -0.510737     -0.266841     -0.106316
O       9.68415      3.94028     14.78770        -0.058002     -1.367234     -0.151109
O       9.46653      0.02741      2.26796         0.077115      0.412213      0.567391
O       9.69790     15.55675     14.92830         0.036747      0.419573      0.217466
O       9.78886      3.91907      6.39852        -1.102513      0.012027      0.622854
O       9.84283     15.54431      6.78266        -0.548891     -0.281471      0.073640
O       9.81293      3.82141     10.83110        -0.962484      0.987605      0.138733
O       9.68418      0.01855     10.64794         0.018150     -1.007622      0.384720
O       9.57872      7.89616      2.27988         0.392519     -0.773808      0.066031
O       9.55843      7.78530     15.03296         0.487397      0.147158     -0.009228
O       9.81802      7.78966      6.81842        -0.371252      0.310941     -0.607842
O       9.82996      7.78086     10.54821        -0.358746      0.152243      0.688362
O       9.67001     11.81879      2.51599         0.025638     -0.889543     -0.013032
O       9.80003     11.73182     14.89846         0.269075     -0.582869      0.449046
O       9.69331     11.69554      6.45893         0.337506     -0.152615      0.735389
O       9.72503     11.65205     10.89862         0.342223      0.544605      0.153372
