  # total energy = -7881.46254687 
CRSYTAL
PRIMVEC
    15.6080000000000005    0.0000000000000000    0.0000000000000000
     0.0000000000000000   15.6080000000000005    0.0000000000000000
     0.0000000000000000    0.0000000000000000   16.6239999999999988
PRESSURE
-1.05399 -0.602074 -0.706126 -0.289652 0.220214 -0.120458
PRIMCOORD
320 1
Pb       3.96566      3.81984      4.10879        -0.561173      0.218927     -0.062032
Pb       4.04748      3.98820      0.08486        -0.555514     -0.016817     -0.297425
Pb       3.91296     15.59963      3.98628        -0.177089      0.140768      0.192760
Pb       3.84050     15.57029     16.56700         0.246458      0.043566     -0.078473
Pb       0.04454      3.85701      4.11434         0.187815      0.302994      0.160595
Pb      15.57921      3.78359     16.60688        -0.340402      0.649882     -0.288032
Pb      15.56505     15.48896      4.00184         0.431183      0.112247      0.562576
Pb      15.57632     15.58380     16.57351        -0.044714      0.165817     -0.187211
Pb       3.74506      3.76192      8.26230         0.353633      0.096836     -0.102825
Pb       3.83942     15.60297      8.15893         0.879088     -0.539432     -0.127831
Pb      15.46872      3.82104      8.27734         0.573998      0.498846     -0.335105
Pb      15.57156     15.55724      8.21000        -0.283218     -0.112680      0.323928
Pb       3.76610      3.87141     12.48877         1.046195     -0.320204     -0.579209
Pb       3.85314     15.52024     12.51471         0.460630      0.260833     -0.299709
Pb       0.07798      4.00614     12.53496        -0.671420     -0.371917      0.396553
Pb       0.06206      0.17425     12.67238        -0.163609     -0.543998     -0.783417
Pb       3.83197      7.88420      4.07614         0.390653     -0.234766      0.043197
Pb       3.88105      7.76137     16.52568         0.133838      0.277904      0.360660
Pb      15.59740      7.86165      4.17638         0.041929     -0.048895     -0.337230
Pb      15.57770      7.75807     16.52550         0.668897     -0.590915      0.678491
Pb       3.82822      7.71530      8.30307         0.171378     -0.023558     -0.850743
Pb      15.31150      7.70996      8.57587         0.847916     -0.208350     -0.417039
Pb       3.94232      7.78445     12.38166         0.011950      0.265064      0.191582
Pb      15.51121      7.86200     12.53210         0.073077     -0.270833     -0.134073
Pb       3.82746     11.72013      4.01283         0.199155     -0.382418      0.190809
Pb       3.82443     11.73313     16.58270         0.412466     -0.381584     -0.233594
Pb      15.52369     11.64572      4.01859         0.458893     -0.010530     -0.030146
Pb      15.54937     11.74645     16.55373         0.202698     -0.213171     -0.009143
Pb       3.83644     11.77496      8.24534         0.239095     -0.015095     -0.447229
Pb       0.00975     11.66332      8.24069         0.476859     -0.018786      0.321040
Pb       3.91372     11.63080     12.34261         0.157809      0.034130      0.309752
Pb       0.12468     11.68685     12.44299        -0.264936      0.215120      0.179462
Pb       7.77233      3.70158      4.16538         0.613735      0.213056     -0.508537
Pb       7.79001      4.00762     16.56926         0.650362     -1.130575      0.319937
Pb       7.71402     15.52427      4.11941         0.691838      0.011842     -0.519966
Pb       7.81141      0.14839      0.01606         0.158407     -0.133662     -0.280100
Pb       7.70495      3.85050      8.38457         0.019406     -0.077212     -0.032706
Pb       7.86362      0.02230      8.22262        -0.726763     -0.505005      0.041967
Pb       7.80051      3.71266     12.40603        -0.201947      0.257944      0.263028
Pb       7.68817     15.54562     12.44035        -0.050144      0.517530      0.293737
Pb       7.81624      7.83976      4.18248        -0.082656     -0.277224     -0.145032
Pb       7.63302      7.78487     16.58793        -0.239769      0.192729      0.212882
Pb       7.82175      7.71600      8.19728        -0.022742      0.418362      0.013525
Pb       7.72343      7.72504     12.42893        -0.075582      0.112566     -0.159941
Pb       7.86912     11.73689      4.19819         0.394033     -0.097713      0.137843
Pb       7.67028     11.80057     16.55806        -0.334296     -0.303373      0.086174
Pb       7.79813     11.75230      8.26235         0.119555     -0.229388     -0.315611
Pb       7.75863     11.63286     12.39024         0.151237     -0.114975      0.042900
Pb      11.86400      3.78752      4.28951        -0.763725      0.098072     -0.021120
Pb      11.73103      4.04163      0.18906         0.184644     -0.607268     -0.549783
Pb      11.60150     15.44447      4.11578        -0.112303      0.046972      0.066565
Pb      11.60036     15.53790     16.57251        -0.008551      0.260159     -0.007597
Pb      11.73677      4.08290      8.46216        -0.500689     -0.030469     -0.666226
Pb      11.70296      0.16397      8.34223         0.465176     -0.448178      0.002986
Pb      11.77846      3.83663     12.50903        -0.574031      0.328790      0.157146
Pb      11.56975      0.06000     12.41285         0.308760     -0.514523     -0.043404
Pb      11.77622      7.81040      4.22149        -0.268732     -0.076533     -0.349094
Pb      11.59725      7.81513     16.62092         0.185371      0.033666     -0.219544
Pb      11.67301      7.79715      8.35808        -0.829757     -0.104866     -0.184666
Pb      11.49612      8.00881     12.58881         0.594029     -0.333786     -0.156683
Pb      11.86738     11.40437      4.19165        -0.792000      0.680868     -0.240190
Pb      11.61355     11.68288     16.52216         0.461771     -0.391588      0.190534
Pb      11.84790     11.91226      8.52956        -0.723683     -0.322169     -0.082899
Pb      11.57895     11.80151     12.42021         0.103967      0.050188     -0.102685
Ti       1.95207      2.01850      2.15489         0.260539     -0.043363      0.399942
Ti       1.98459      2.04708     14.63602        -0.051317     -0.501125      1.226657
Ti       1.95859     13.66213      2.10910        -0.590250      0.106978      1.153065
Ti       1.91341     13.68789     14.59202         0.362501     -1.060785     -0.357161
Ti      13.68188      1.88150      2.30148        -0.083285      0.301672     -0.923535
Ti      13.65017      1.88168     14.60227        -0.145886      1.797804      1.169729
Ti      13.61703     13.61184      2.16911        -0.065445     -0.124717     -0.377678
Ti      13.60048     13.61044     14.63369         0.135458     -0.734090     -0.811400
Ti       1.91751      1.74736      6.29874         0.793051      1.455793      0.573530
Ti       1.85619     13.54439      6.30336         1.514487      0.541187     -0.033501
Ti      13.64952      1.89463      6.40247         0.022456     -0.087299     -0.710689
Ti      13.65272     13.55014      6.39677        -0.155617      1.289490     -0.737604
Ti       2.01960      1.86589     10.53189        -0.208698      0.300407      1.478938
Ti       1.95806     13.67439     10.54026        -0.188983      0.253211     -0.197152
Ti      13.74337      1.99194     10.62554        -0.398993     -1.391061     -0.997697
Ti      13.73289     13.72591     10.58565        -0.627938      0.633487      0.337223
Ti       1.88391      5.92471      2.24902         0.110491     -1.106092     -0.020075
Ti       2.06109      5.81248     14.52127        -0.856728      0.860913      2.148847
Ti      13.56409      5.79927      2.28132         0.864814      0.080094     -0.810155
Ti      13.71320      5.82049     14.70825        -0.350126     -0.990354      0.325690
Ti       2.01502      5.70401      6.33605        -0.713984      0.281705      1.134424
Ti      13.74614      5.87678      6.36772        -0.304359     -0.861285     -0.203827
Ti       1.83207      5.83434     10.58742         0.265979     -0.945300     -1.672933
Ti      13.56219      5.82760     10.63151         0.149686      0.961019      0.783166
Ti       1.98309      9.79164      2.19437         0.110220     -1.079271     -0.243223
Ti       1.94129      9.72785     14.71602         0.393411      0.130745      0.413642
Ti      13.62564      9.69159      2.12021         0.131825     -0.367820     -0.127226
Ti      13.72407      9.63267     14.73255        -1.392487      1.160559      0.092373
Ti       1.98128      9.60079      6.33719         0.256857      0.627783     -0.384691
Ti      13.70294      9.73372      6.51609        -0.372432     -0.612256     -1.153053
Ti       1.93177      9.72020     10.44769         0.359608      0.001887      0.615037
Ti      13.72741      9.83356     10.55938        -0.915358     -0.405870      0.310387
Ti       5.89104      1.97295      2.14955         0.080462     -0.923894      0.777677
Ti       5.81277      1.84835     14.70397         1.400949      0.603716     -0.092049
Ti       5.89386     13.54154      2.23073        -0.552585      0.317894     -0.616784
Ti       5.81535     13.62291     14.58263         0.161477     -0.206766     -0.033761
Ti       5.89781      1.84685      6.25583        -1.700752     -0.428688      0.583815
Ti       5.87428     13.53420      6.25033        -0.399333      1.144616      1.365867
Ti       5.81176      1.96944     10.50167         0.371068     -0.340021     -0.020956
Ti       5.84365     13.60645     10.50885         0.077009      0.564449     -0.815110
Ti       5.80523      5.85788      2.15918        -0.039965      0.829625     -0.189617
Ti       5.89087      5.71476     14.65234        -0.134597      1.297296      0.649341
Ti       5.82801      5.70218      6.31131        -0.277954      1.163928     -0.145914
Ti       5.72001      5.84731     10.47710         0.829374     -1.423053      1.471115
Ti       5.99342      9.71938      2.27240        -1.236151      0.918530     -1.350258
Ti       5.88455      9.73961     14.59332        -1.241600     -0.254908      0.262122
Ti       5.86931      9.65393      6.31169        -0.071946     -0.262629     -0.311845
Ti       5.82651      9.71543     10.36123         0.540468      0.178991      0.669444
Ti       9.88007      1.90812      2.24095        -0.913018      0.351730      1.247184
Ti       9.83994      1.87236     14.68783        -1.409923      0.743179     -0.201832
Ti       9.78726     13.52865      2.11600        -0.322549      0.289394      0.512535
Ti       9.72228     13.56450     14.68396        -0.496676      0.794083     -0.529006
Ti       9.75663      1.95028      6.46109         0.349594      0.159958     -1.892656
Ti       9.84046     13.60199      6.37140        -0.894671     -0.416272     -1.774735
Ti       9.79190      1.93851     10.51235        -0.454153      0.869597      0.065199
Ti       9.65016     13.71575     10.49813         1.148180     -1.053509     -0.184941
Ti       9.71727      5.78424      2.29392         0.206699     -0.153849      0.245402
Ti       9.76519      5.79841     14.75626         0.398101     -0.479993     -0.374099
Ti       9.75735      5.78495      6.32541        -0.017956      0.628480      0.690596
Ti       9.69836      5.83136     10.67142         0.713844     -0.214391     -0.587276
Ti       9.75278      9.70301      2.10293         0.892224     -0.076244     -0.199798
Ti       9.68767      9.69453     14.71637         0.317377      0.222001      0.041395
Ti       9.83562      9.75896      6.40524        -0.477994     -0.487151      0.098783
Ti       9.69458      9.72122     10.52184         0.242368      0.905672     -1.286347
O       1.93043      1.99875      0.36885         0.031621     -0.011156     -0.154712
O       2.04942      1.89011     12.88114        -0.095025      0.078385      0.172778
O       1.91295     13.59488      0.36954         0.180634      0.449322     -0.673198
O       2.01468     13.52657     12.75091        -0.143987      0.130022      1.192993
O      13.69880      1.85091      0.50326         0.334367      0.111788     -0.141994
O      13.67353      2.11707     12.86298        -0.103922     -0.691267     -0.834042
O      13.68682     13.65548      0.36983        -0.142041      0.375595      0.472770
O      13.56389     13.55686     12.81554         0.048112      0.153699      1.353482
O       1.98415      1.92822      4.60091        -0.106662     -0.017638     -1.617240
O       1.81654     13.61183      4.54904         0.228671     -0.408621     -0.527038
O      13.63345      1.95110      4.60264         0.143535     -0.251515      0.445364
O      13.71553     13.53014      4.59223        -0.219423      0.025365      0.463001
O       2.14078      1.81948      8.76749        -0.635026      0.079638     -0.164482
O       2.00416     13.90149      8.75153        -0.364282     -0.734567      0.511775
O      13.72391      1.80884      8.77307        -0.036710      0.546011      0.454887
O      13.72187     13.68622      8.73092        -0.135006     -0.347794      0.680441
O       1.99055      5.94955      0.50260        -0.114184     -0.437853     -0.925613
O       2.15139      5.75765     12.77041        -0.470509      0.270715     -0.311407
O      13.68413      5.61667      0.45645        -0.509369      0.500306      0.448981
O      13.74151      5.79321     12.95805        -0.494968     -0.001241     -1.262785
O       1.89906      5.78024      4.61716         0.085616      0.028418     -1.042521
O      13.59847      5.88965      4.60460         0.200171     -0.106970     -0.532024
O       1.84885      5.67845      8.73526         0.131496      0.294466      1.044127
O      13.79203      5.73657      8.82285        -0.613336      0.207382     -0.241941
O       1.89670      9.69859      0.42892         0.206243     -0.041733     -0.353324
O       1.76247      9.68965     12.94978         0.508386      0.354239     -0.271981
O      13.50654      9.67477      0.35407         0.264674     -0.081184      0.285673
O      13.68393      9.59214     12.96398         0.539452      0.337879     -1.234051
O       1.92596      9.77702      4.49317         0.129513     -0.331900      0.876760
O      13.57836      9.65923      4.59451         0.216781      0.275621      1.345622
O       2.08666      9.74704      8.70370        -0.391663     -0.348077     -0.097742
O      13.88981      9.86693      8.73555        -0.570815     -0.626500      0.342894
O       5.87111      1.85329      0.40155        -0.155009      0.202439     -0.953090
O       5.88239      1.94247     12.94126         0.022931     -0.082256     -0.043642
O       5.82884     13.53260      0.44276         0.208715      0.198854     -0.790048
O       5.76804     13.64700     12.78685         0.097068     -0.053021      0.253186
O       5.83326      1.95874      4.44852         0.383340     -0.185934      0.113781
O       5.82842     13.53124      4.50670        -0.003460      0.319363     -1.577742
O       5.82424      1.95750      8.72134        -0.011697      0.103668     -0.431697
O       5.96412     13.57591      8.71923         0.028051      0.023498      0.193039
O       5.77993      6.01358      0.28647        -0.025411     -0.949415      1.641272
O       5.94503      5.80837     12.91085        -0.322893      0.339473     -1.015317
O       5.76273      5.85828      4.54159         0.424314     -0.200996     -0.236196
O       5.94717      5.68773      8.78317        -0.221567      0.195290     -1.618807
O       5.98859      9.81369      0.44649         0.149245     -0.075175     -0.061267
O       5.81215      9.73401     12.79846         0.022351     -0.219509      0.319294
O       5.84395      9.58624      4.44753         0.269766      0.484467      1.015880
O       5.84062      9.82455      8.59200        -0.131225     -0.210308      0.321955
O       9.78890      1.86075      0.49567         0.187018     -0.482222     -0.976407
O       9.76667      1.89130     12.88198         0.062568     -0.016075     -0.447694
O       9.68773     13.64074      0.27295         0.252818     -0.131746      1.115874
O       9.84606     13.65990     12.88465        -0.036715     -0.122656     -0.442447
O       9.67244      1.93121      4.53458        -0.017368     -0.242400      2.185801
O       9.75943     13.52225      4.45879         0.146015      0.358321      1.884108
O       9.71248      2.00594      8.71986         0.296536     -0.276353     -0.689066
O       9.65544     13.57551      8.69829         0.004021      0.066016     -0.062916
O       9.96031      5.52868      0.54621        -0.882980      0.958970     -1.111575
O       9.76677      5.78308     13.01090        -0.416989      0.138356     -0.941073
O       9.64453      5.79231      4.57201         0.150161      0.185245     -0.214797
O       9.95296      5.83230      8.88275        -0.638002      0.004668     -0.177820
O       9.91869      9.73489      0.27302        -0.571966     -0.176572      0.793121
O       9.69308      9.83084     12.91860         0.069047     -0.470464     -0.276376
O       9.99375      9.61647      4.58372        -0.453231      0.245781      0.593284
O       9.76887      9.78098      8.72032        -0.223516     -0.153145      0.535516
O       3.86475      1.97559      2.48509         0.516043     -0.484316     -0.017867
O       3.94809      1.94609     15.03833        -0.649491      0.057433     -0.017398
O       3.82760     13.59943      2.48900         0.030934      0.324679     -0.005325
O       3.87007     13.68639     14.95532         0.157692     -0.104596      0.052415
O       0.08227      2.02856      2.59879        -1.258157     -0.196817     -0.309839
O       0.05284      2.03688     14.89328         0.118908     -0.722079      0.088288
O      15.58508     13.56118      2.50992        -0.316713      0.130774     -0.279191
O       0.04157     13.55849     14.97822        -0.953146      0.732623     -0.379723
O       3.92491      1.73205      6.56809        -0.029186      0.690600      0.215803
O       3.92141     13.65412      6.63413        -0.096295     -0.517433     -0.020607
O       0.00337      1.80866      6.69225        -0.413226      0.524183      0.046374
O       0.01187     13.55798      6.72260        -0.772603      0.246792     -0.032133
O       3.91950      1.88233     10.92004        -1.042969      0.031966     -0.241763
O       3.97144     13.59930     10.73608        -1.008335      0.235048      0.191739
O       0.02317      1.86532     10.98311        -0.120941      0.108431     -0.623956
O      15.56981     13.70058     10.92649         0.664159     -0.191166     -0.451756
O       3.86674      5.93628      2.46587         1.037258     -0.222489      0.173007
O       3.94834      5.82802     14.98136        -0.500937     -0.356972     -0.299883
O      15.54828      5.70792      2.48816        -0.339095      0.004049      0.532619
O       0.01761      5.71591     14.89116         0.874077      0.564714      0.299910
O       3.89819      5.96235      6.62393         0.410728     -0.924601      0.576314
O       0.03388      5.77624      6.66995        -0.389594      0.085656      0.082404
O       3.86534      5.72620     10.67356        -0.285875      0.340404      0.483355
O      15.55303      5.78633     10.96434         0.153206     -0.439505     -0.169319
O       3.92904      9.63920      2.38976        -0.909426      0.282143      0.492163
O       3.84714      9.77862     14.98150        -0.126325      0.074297     -0.161349
O      15.59143      9.70659      2.51688        -0.898344      0.042130     -0.104988
O      15.60540      9.70905     15.19741         0.061535      0.164869     -0.757120
O       3.94840      9.73221      6.59289         0.016807      0.392096      0.106428
O       0.07398      9.63200      6.66757        -1.016968      0.571774      0.053131
O       3.87786      9.72326     10.89222        -0.594065     -0.382811     -0.433666
O       0.06051      9.69827     10.85920        -0.493413      0.312207     -0.162136
O       7.77754      2.00601      2.48620         0.092731     -0.281907      0.111428
O       7.84699      1.84165     15.00013        -0.513784      0.110851      0.293840
O       7.72732     13.36233      2.53277         1.053727      0.870698     -0.305542
O       7.81868     13.53565     14.74100        -0.807514      0.066969      0.541272
O       7.74876      1.94626      6.72262         0.967887     -0.185926     -0.312053
O       7.87416     13.68088      6.49125        -0.056442     -0.004002      0.495119
O       7.81406      2.03613     10.73517         0.517268     -0.186171      0.292084
O       7.76394     13.71694     10.87718         0.307826     -0.320210      0.029659
O       7.73046      5.84236      2.41306         0.300664     -0.384822      0.200718
O       7.79478      5.80166     15.15122         0.143514      0.311278     -0.448020
O       7.71967      5.98459      6.65063         1.088683     -1.187463     -0.070214
O       7.84212      5.75961     10.88073        -0.695402      0.415360     -0.009171
O       7.93735      9.84932      2.51951        -0.528965     -0.243806      0.212474
O       7.72881      9.75727     14.85686         0.791055      0.129109      0.355298
O       7.83365      9.65683      6.53129         0.317688      0.092171      0.209532
O       7.71875      9.61581     10.72457        -0.038352      0.453723      0.279348
O      11.74985      1.78012      2.56068        -0.416918     -0.256176      0.090353
O      11.70742      1.88762     14.88702         1.145501     -0.565365      0.286319
O      11.67731     13.60272      2.53084         0.464346      0.600953     -0.655541
O      11.68326     13.58033     15.00979         0.979094      0.539124     -0.138444
O      11.70689      1.92369      6.65639        -0.555915      0.244462      0.309910
O      11.74761     13.59434      6.71330        -0.091955     -0.196364      0.095808
O      11.70425      1.92107     10.83629         0.266357      0.168049      0.041843
O      11.64205     13.57569     10.74796         0.351513     -0.152240     -0.069576
O      11.62431      5.79961      2.57570         1.066472      0.248969      0.291586
O      11.70721      5.91176     14.93214        -0.121138     -0.298407      0.658093
O      11.69081      5.87383      6.70658         0.040499     -0.429381      0.117864
O      11.62188      6.01657     10.99132         2.032760     -0.594100     -0.160823
O      11.71246      9.62698      2.55038         0.190426      0.253345     -0.245478
O      11.72756      9.52392     14.87647        -0.739034      0.239630      0.263447
O      11.73697      9.66466      6.86741         0.885009      0.308367     -0.510442
O      11.69750      9.71560     10.80980         0.810285      0.226489      0.039842
O       2.02892      3.90285      2.61693        -0.217633     -0.156057     -0.330308
O       1.96791      3.94926     14.88181         0.500481     -0.757719      0.091707
O       1.84345      0.01378      2.42695         0.408079     -0.613310     -0.027646
O       1.98041     15.59373     14.92071        -0.326395      0.246097      0.022331
O      13.45617      3.80563      2.64849         0.756956      0.408772     -0.384096
O      13.71699      3.83592     14.96661        -0.516678     -0.067265      0.365409
O      13.67905     15.59184      2.52847         0.193151     -1.111643      0.169882
O      13.85331      0.00026     14.81669        -0.561024     -0.746218      0.367372
O       2.04762      3.77770      6.65771        -0.240927      0.405211      0.004671
O       1.94378     15.52460      6.46169        -0.241239     -0.706653      0.889625
O      13.63589      3.90297      6.62316         0.209994     -0.495105      0.597000
O      13.57492     15.54392      6.64386         0.488782     -0.027442      0.174157
O       1.85208      3.79496     11.03376         0.758566     -0.269532     -1.127857
O       1.91245     15.53305     11.10095         0.394561      0.619628     -1.016993
O      13.59293      3.87755     10.80090        -0.077383      0.350964      0.066673
O      13.54084      0.02306     10.94264         0.526569     -0.469059     -0.135670
O       1.84377      7.72717      2.63320        -0.067606      1.365676      0.073887
O       1.95116      7.72702     14.91408        -0.160016      0.228715     -0.013798
O      13.60621      7.72098      2.42306         0.226520      0.346167      0.286616
O      13.74645      7.76748     14.94878         0.190588     -0.771776      0.575191
O       2.11142      7.79746      6.63126        -0.595700     -0.414638     -0.034749
O      13.67837      7.75239      6.69780         0.095775      0.669625      0.682094
O       1.79385      7.65059     10.83867         0.890910      1.753910     -0.246372
O      13.86166      7.75799     10.77223        -0.565475      0.393500     -0.279828
O       1.92475     11.65225      2.42876         0.109163      0.665941      0.179870
O       1.86060     11.76006     15.00031         0.450032     -0.946674     -0.183394
O      13.55762     11.68022      2.42823         0.377335     -0.540414      0.183707
O      13.62296     11.66095     15.02576         0.207862      0.317035     -0.303870
O       1.98029     11.69478      6.70840        -0.126698     -0.399047      0.116476
O      13.63277     11.63586      6.78349         0.335533      0.113939     -0.355594
O       1.92825     11.66744     10.68974        -0.025655      0.226330      0.243281
O      13.74259     11.68114     10.90387        -0.222006     -0.235931     -0.486896
O       5.79800      3.90117      2.33199        -0.290589      0.614122      0.183897
O       5.96203      3.89183     14.96713        -0.624429     -0.726556      0.398145
O       5.87067     15.57991      2.40499        -0.034023     -0.317184      0.645752
O       5.88475     15.55427     14.91653        -0.250835     -0.322817      0.295604
O       5.75947      3.79794      6.51739         0.284331      0.591630      0.388162
O       5.83896     15.55248      6.57408         0.794836      0.220565     -0.066402
O       5.79159      3.83961     10.86591         0.238105      0.648704      0.124055
O       5.93931      0.08900     10.88846        -0.450680     -1.400182     -0.214140
O       5.93082      7.89140      2.42840         0.243384     -1.990756      0.238478
O       5.76717      7.83982     15.02064         0.573864      0.004278     -0.690965
O       5.89215      7.75652      6.70347        -0.482483      0.539910      0.054538
O       5.73300      7.75175     10.78852         0.262397      0.068982     -0.131444
O       5.73447     11.65477      2.38749        -0.118323      0.134245      1.029839
O       5.79386     11.70788     14.86820        -0.003029      0.081910      0.268233
O       6.00962     11.71369      6.51775        -0.379144     -1.006671      0.344817
O       5.86037     11.61919     10.77731         0.040409      0.606646      0.015234
O       9.91286      3.78657      2.55565        -0.647446      0.201508      0.259679
O       9.73910      3.76063     15.06012         0.063319      1.111599     -0.094100
O       9.62047     15.45787      2.55490         0.249930      0.392847     -0.257178
O       9.75931     15.53125     14.98286         0.265963      0.125704      0.302226
O       9.67527      3.88931      6.73599         0.146179     -0.050729     -0.161386
O       9.86139     15.55631      6.76088        -0.462815      0.712458     -0.323332
O       9.87940      3.88712     10.83478        -0.180792      0.033634      0.258011
O       9.81251      0.01258     10.69400        -0.384108     -0.202282      0.329074
O       9.71239      7.75477      2.35070        -0.040179      0.135181      0.281991
O       9.54865      7.72435     15.00777         0.745863      0.496990      0.034867
O       9.81383      7.77972      6.80790        -0.180259     -0.486062     -0.302185
O       9.69730      7.90201     10.93027        -0.100829     -1.344479      0.213245
O       9.84236     11.66213      2.36571         0.093904     -0.428720      0.098727
O       9.80195     11.63380     14.96486        -0.014885      0.007669     -0.040082
O       9.79570     11.66334      6.57999        -0.087003      0.202389      0.299131
O       9.64563     11.72431     10.81184        -0.111034     -0.301870      0.248420
