  # total energy = -7878.89811709 
CRSYTAL
PRIMVEC
    15.6080000000000005    0.0000000000000000    0.0000000000000000
     0.0000000000000000   15.6080000000000005    0.0000000000000000
     0.0000000000000000    0.0000000000000000   16.6239999999999988
PRESSURE
-0.745023 -0.948528 -1.3471 0.02823 -0.348162 -0.023001
PRIMCOORD
320 1
Pb       3.73673      3.83645      4.15537         0.277405      0.101214     -0.514150
Pb       3.74151      3.73425     16.57805         0.043438      0.283800     -0.172336
Pb       3.93825     15.43656      4.31770        -0.515706     -0.162384     -0.395581
Pb       4.01149      0.00511      0.06501        -0.279801     -0.395559     -0.159832
Pb      15.60334      3.90184      4.15213        -0.260732      0.047033      0.130935
Pb      15.59620      3.96390     16.62046        -0.318213     -0.433201     -0.024424
Pb       0.09074     15.59510      4.31444        -0.076652     -0.646630     -0.279864
Pb      15.59870     15.56132      0.03725        -0.181650      0.153209     -0.502683
Pb       4.06265      4.05099      8.29421        -0.453619     -0.780467      0.435705
Pb       3.88416     15.58913      8.45703         0.142761     -0.276941     -0.637588
Pb       0.11761      3.94767      8.26129        -0.925830     -0.240250     -0.074676
Pb      15.58694      0.05577      8.38122        -0.021022     -0.443193     -0.549495
Pb       3.95862      3.86082     12.33793        -0.273667      0.029561     -0.514745
Pb       3.94143      0.14742     12.36148        -0.095254     -0.581411      0.083204
Pb      15.50171      3.83769     12.37804         0.510247      0.036756     -0.227576
Pb      15.47821     15.53139     12.31111         0.410232     -0.268898      0.182650
Pb       3.95895      7.66290      4.22574        -0.579313      0.407293     -0.825056
Pb       3.86721      7.85001      0.05481        -0.086723     -0.057060     -0.207575
Pb      15.48722      7.71802      4.14858         0.139902      0.699947     -0.769677
Pb       0.01193      7.77962      0.01316        -0.088328      0.362860      0.350458
Pb       3.90199      7.85198      8.27667         0.316351      0.052005     -0.235905
Pb       0.19478      7.88016      8.02145        -1.092142     -1.161394      0.996146
Pb       3.76724      7.78902     12.47599         0.022872      0.306501     -0.020095
Pb       0.05240      7.73199     12.38862        -0.663249      0.511724     -0.012544
Pb       4.00272     11.58457      4.29311        -0.636743      0.437515     -0.553180
Pb       3.90924     11.64361     16.62331        -0.286080      0.077875      0.528390
Pb       0.06716     11.66038      4.24931         0.007234      0.088441     -0.700575
Pb       0.02238     11.59080     16.56836        -0.096593     -0.004599      0.507463
Pb       3.89400     11.48654      8.36404         0.316927      0.789348     -0.181247
Pb      15.59544     11.72763      8.40201        -0.218941      0.105093     -0.613345
Pb       3.78260     11.71967     12.59840        -0.286099      0.089953     -0.170162
Pb      15.36147     11.77312     12.47304         0.427776     -0.344118     -0.210329
Pb       7.88060      4.06795      4.12833        -0.236553     -0.280895      0.215891
Pb       7.74927      3.72992      0.12815         0.166507     -0.019067     -0.921443
Pb       7.89882      0.05316      4.18294        -0.605363     -0.045456      0.042395
Pb       7.80935     15.42989     16.56226         0.212672     -0.017261     -0.503909
Pb       7.88510      3.94626      8.07254        -0.050010     -0.183712      1.213008
Pb       7.70517     15.59878      8.35570        -0.093419     -0.304822     -0.733547
Pb       7.80033      4.08586     12.52972        -0.249813     -0.259641     -0.362567
Pb       7.78543      0.05625     12.39992         0.003295     -0.026505      0.545782
Pb       7.78080      7.76690      4.15050         0.071860     -0.193954     -0.411016
Pb       7.86661      7.62632      0.06448        -0.660560      0.148978     -0.293490
Pb       7.68066      7.76748      8.38418         0.502042     -0.028616     -0.236388
Pb       7.66760      7.98624     12.58811         0.365177     -0.546041     -0.546387
Pb       7.76159     11.62961      4.15706         0.134524      0.258994     -0.361311
Pb       7.91166     11.53866      0.06646        -0.342226      0.586316     -0.352513
Pb       7.78567     11.57502      8.46466        -0.052877      0.498451     -0.412288
Pb       7.71134     11.80284     12.53159         0.314768     -0.417683     -0.250988
Pb      11.55663      3.97136      3.92196         0.103256      0.104973      1.368600
Pb      11.61671      3.66601     16.46149         0.284623      0.334261      0.055569
Pb      11.96406      0.14073      4.17141        -0.665706     -0.166015      0.341112
Pb      11.78745     15.58760      0.02837        -0.001305     -0.119847     -0.780895
Pb      11.69769      3.62529      8.08384         0.078486      1.094825      0.340983
Pb      11.81303     15.42375      8.30390        -0.584856      0.106889      0.100945
Pb      11.52678      3.95969     12.34955         0.278065     -0.423191      0.438705
Pb      11.78283      0.06533     12.57885        -0.248651     -0.396472     -0.228393
Pb      11.65637      8.05677      4.16889         0.436568     -0.937667      0.016569
Pb      11.73057      7.74024     16.55815         0.080209      0.056929      0.210999
Pb      11.71366      7.73523      8.26841         0.066776     -0.260509     -0.515665
Pb      11.90223      7.54235     12.39418        -0.383092      1.377764      0.640291
Pb      11.56538     12.06845      4.09361         0.307255     -0.857162      0.385788
Pb      11.64812     11.73790      0.05981        -0.041116     -0.246552     -0.452073
Pb      11.52277     11.48634      8.12465         0.841526      1.113079      0.772509
Pb      11.65757     11.53037     12.53385         0.054188      0.327504     -0.283272
Ti       1.90051      1.96670      2.22383        -0.330755     -0.429876     -1.059068
Ti       1.84660      2.03619     14.53884        -0.293226     -1.255974     -0.634348
Ti       1.87159     13.75469      2.15782         0.107888     -1.104522      0.906708
Ti       1.85690     13.71929     14.68702         0.081950     -0.053089     -1.677290
Ti      13.67677      1.99628      2.25331        -0.069912      0.076633     -1.144192
Ti      13.72084      1.87114     14.59873        -1.050053     -0.332054     -0.304215
Ti      13.63240     13.67522      2.16681         1.070372      0.119451     -0.375061
Ti      13.63059     13.46083     14.66921        -0.407124      1.119534      0.230745
Ti       2.02760      1.87277      6.33121        -0.519276     -0.120373      0.780162
Ti       1.93615     13.54237      6.46074        -0.362357      0.489973     -0.336483
Ti      13.69085      1.87861      6.35990        -0.186499      0.584145      0.950482
Ti      13.60978     13.54954      6.36604         0.654878      0.545705     -0.072470
Ti       1.87756      1.83044     10.49565         0.537372      0.941232      0.417015
Ti       1.97912     13.56200     10.51622        -0.531140      0.275116     -0.063995
Ti      13.56521      1.96699     10.47851         0.131880     -0.319107     -0.585554
Ti      13.47064     13.67097     10.42834        -0.057788     -1.300523     -0.204211
Ti       1.80155      5.87434      2.19726         1.041887      1.177051     -0.090509
Ti       1.94072      5.90209     14.58369        -0.060410     -0.483931     -0.586588
Ti      13.52905      5.80083      2.25621        -0.086752      1.201360      0.600874
Ti      13.66888      5.69936     14.66559        -0.685174      0.413903      0.507433
Ti       2.06999      5.70809      6.34429        -1.698683      0.806050     -0.841696
Ti      13.68338      5.84554      6.24533        -1.089080     -0.422226      0.244298
Ti       1.91265      5.85540     10.42826         0.135181     -0.748369     -0.028484
Ti      13.67304      5.79156     10.35204        -0.147917      0.831762      0.860598
Ti       1.93817      9.81873      2.27091        -1.073003     -0.600131      0.048761
Ti       1.91229      9.74660     14.68640        -0.546247      0.331663      0.495445
Ti      13.51369      9.83279      2.29083         1.836702     -0.851599     -0.069060
Ti      13.60464      9.58559     14.78615         0.550982      0.930886     -0.780029
Ti       2.01522      9.67898      6.29488        -0.686580      0.944257     -0.444995
Ti      13.66095      9.69629      6.30264        -0.101704      0.333318     -0.353534
Ti       1.90026      9.79294     10.41339        -0.116663     -0.099507      0.896413
Ti      13.65150      9.74818     10.44644         0.015054     -0.124433     -0.437056
Ti       5.75006      1.95928      2.22933        -0.097437     -0.347229     -0.241417
Ti       5.80531      1.91686     14.71041         0.945483      0.153720     -0.823887
Ti       5.79596     13.66939      2.32013        -0.456506     -0.554250     -0.250581
Ti       5.69759     13.61192     14.68984         0.731069      0.045683     -0.480088
Ti       5.79399      1.98659      6.24514         0.735363     -1.538610      1.802860
Ti       5.77565     13.61259      6.34036         0.367466      0.444890      1.849025
Ti       5.99718      2.05329     10.34358        -1.166248      0.384776      0.137684
Ti       5.85465     13.68730     10.54107        -0.691401     -0.296465     -1.311646
Ti       5.73396      5.85239      2.09012        -0.472024      0.369026      0.004413
Ti       5.85102      5.77315     14.73167         0.061652      0.850558     -0.138253
Ti       5.82899      5.79098      6.30311         1.472914      1.064164     -0.560094
Ti       5.77445      6.05325     10.43820         1.369038     -2.153628      0.731928
Ti       5.80889      9.81511      2.25065        -0.472905     -0.088728     -1.486163
Ti       5.84050      9.79147     14.68112        -0.536671     -1.246388      0.705303
Ti       5.94351      9.70653      6.37776        -0.820767      0.100322      0.401292
Ti       5.78493      9.83670     10.64741         0.300207     -0.029387     -0.943043
Ti       9.63649      1.90307      2.19340         0.779937      0.269961      0.567041
Ti       9.69828      1.85893     14.54681         0.237928      0.074225      1.677723
Ti       9.67522     13.71084      2.25765        -0.503573     -0.485013     -1.250610
Ti       9.76373     13.57221     14.63447        -0.011930      0.403014      0.642802
Ti       9.68920      1.87502      6.37545         0.235108      0.295121     -0.300130
Ti       9.63894     13.72956      6.36150         0.237811     -1.082135      0.209142
Ti       9.71565      1.89825     10.51959         0.527406      0.251761     -0.844182
Ti       9.64242     13.63168     10.51648         1.254211     -0.739951     -0.691543
Ti       9.65261      5.84348      2.03931         0.784325      0.628090      1.543698
Ti       9.68487      5.85333     14.63938         0.759275     -0.884765      0.643313
Ti       9.73866      5.92025      6.36415         0.998670     -0.169010     -0.307336
Ti       9.70024      5.89591     10.47634        -1.120230      0.264139     -0.622365
Ti       9.68082      9.76156      2.08650         0.543084     -0.230705     -0.172870
Ti       9.69077      9.65443     14.58479         0.894127      1.164188      0.162368
Ti       9.73626      9.72247      6.36164        -0.080155     -0.459072      0.069332
Ti       9.86939      9.75276     10.47985        -0.438437     -0.697146      0.936390
O       1.70807      2.00952      0.38859         0.824342     -0.112638     -0.036351
O       1.87116      1.99362     12.70161         0.018635     -0.103193      0.964499
O       1.69202     13.91717      0.37804         0.424712     -0.359005     -0.468440
O       2.00666     13.47030     12.80939        -0.354894      0.544315      0.798105
O      13.58337      2.10084      0.42118         0.193435     -0.350832      0.605574
O      13.60321      1.85283     12.77390         0.363257      0.178225     -0.151410
O      13.68462     13.80110      0.31037        -0.103952      0.007438      1.365814
O      13.42247     13.45049     12.83644         0.435164      0.500712      0.436238
O       1.98664      2.08165      4.54497        -0.229550     -0.130522      0.136899
O       1.99779     13.56741      4.68528        -0.262006      0.212701     -0.768207
O      13.77040      1.79387      4.60054        -0.074704      0.093394     -0.905270
O      13.63107     13.87767      4.53602        -0.520752     -0.718463      0.579054
O       1.97605      1.77551      8.74360         0.081780      0.271191     -1.190266
O       1.93197     13.51229      8.69747        -0.089103      0.382048      0.154934
O      13.51048      1.97984      8.65691        -0.056572     -0.368175      0.644028
O      13.59521     13.60220      8.60652         0.195728     -0.083880      1.014268
O       1.83013      5.96540      0.36838         0.138156     -0.755421      0.575154
O       1.78088      5.99578     12.72465         0.456163     -0.592131      1.296058
O      13.60296      5.61824      0.51290        -0.156323      0.435902     -0.906004
O      13.70968      5.95606     12.90271         0.066538     -0.634751     -0.323290
O       1.98627      5.78117      4.52600        -0.008322     -0.659365      0.552570
O      13.48236      5.84400      4.48706         0.787066     -0.054214      0.311423
O       2.11040      5.78758      8.59092        -0.108169      0.332651      0.774358
O      13.55223      5.91250      8.63741        -0.089212     -0.195197     -0.180440
O       1.83456      9.56670      0.46531         0.492224      0.303566      0.193555
O       1.83783      9.82298     12.92995         0.289353     -0.378673     -0.671874
O      13.56580      9.61682      0.54204         0.133059      0.330533     -1.125736
O      13.86162      9.65606     13.01962        -0.640815      0.163440     -0.178895
O       1.98566      9.87785      4.52569        -0.246905     -0.093941      0.588585
O      13.57452      9.73029      4.49344        -0.184363      0.142362      0.530217
O       2.00793      9.89784      8.60966        -0.143703     -0.784693      0.189881
O      13.55579      9.81070      8.64950         0.225594     -0.325199      0.440012
O       5.74978      1.82241      0.37046         0.052670      0.463987      0.771362
O       6.10722      2.03286     12.94315        -1.163602     -0.428757      0.070189
O       5.59694     13.57857      0.54594         0.387551      0.385748     -0.750206
O       5.62826     13.61184     12.90366         0.341574     -0.073247     -0.421451
O       5.77431      1.91760      4.52796        -0.043624      0.227540     -2.033991
O       5.63277     13.67568      4.59598         0.181407     -0.253591     -1.546086
O       5.93780      1.90556      8.55661        -0.407606     -0.086163      0.974582
O       5.93934     13.57984      8.69120         0.064363      0.600018      1.227663
O       5.73040      5.89288      0.30268        -0.163029     -0.060012      0.455410
O       6.15890      5.77946     12.94439        -0.734423      0.236970      0.087461
O       5.89576      5.84047      4.49170        -0.010803      0.161088     -0.010504
O       5.63762      6.03986      8.64530         0.018419     -0.035176     -0.388524
O       5.71013      9.99861      0.40212        -0.019924     -0.811572      0.782834
O       5.74794      9.80041     12.89511         0.302773     -0.010775     -0.934616
O       5.95299      9.76047      4.60499        -0.089400      0.124595     -0.791745
O       5.77800      9.67209      8.74204        -0.440449      0.028441      0.921498
O       9.67903      2.07611      0.45090         0.048496     -0.353449     -0.378863
O       9.75301      1.80628     12.80118        -0.109713     -0.151216     -1.149838
O       9.58014     13.48719      0.42910         0.247920      0.651414      1.189981
O       9.92585     13.62313     12.87084        -0.590277     -0.222959     -0.033760
O       9.65310      1.71829      4.60660         0.003518      0.179994     -0.287368
O       9.87524     13.77182      4.51400        -0.714137     -0.032755      0.698617
O       9.74890      2.04360      8.69962         0.049734     -0.172425      0.744672
O       9.46525     13.40349      8.72738         0.180818      0.530873      0.042130
O       9.79131      5.88208      0.31855        -0.183183     -0.416545     -0.630657
O       9.58867      5.84461     12.85564        -0.080677      0.183353      0.190920
O       9.45353      5.94582      4.56833         0.107820      0.003185     -0.419791
O       9.75209      5.77276      8.66597         0.170960      0.287283      0.516165
O       9.83635      9.87023      0.27566        -0.852882     -0.289573      1.136445
O       9.68407      9.72701     12.79259        -0.068230      0.017432      0.576130
O       9.67644      9.52483      4.59350        -0.516390      0.595554     -0.742684
O       9.78938      9.78345      8.65086        -0.120553     -0.125619      0.707346
O       3.77289      1.94896      2.40757         1.813115     -0.207768      0.097552
O       3.79054      1.93068     14.85563         0.143938     -0.040873      0.256855
O       3.71267     13.62990      2.53831         0.763187      0.547365      0.075769
O       3.75212     13.70997     14.91538        -0.053019     -0.022025      0.815009
O       0.02457      2.10480      2.55267        -1.084603     -0.105775      0.116063
O      15.50650      2.26797     14.81833         0.969761     -0.769860      0.046621
O      15.50292     13.72217      2.67059         0.173169      0.095142     -0.525836
O      15.49131     13.61702     14.85780         0.625017     -0.341719      0.037397
O       3.89929      2.06944      6.55007        -0.162689     -0.253940      0.366573
O       3.87794     13.73294      6.68790        -0.000380     -0.426028      0.414438
O      15.55255      1.83548      6.75931         0.650459      0.344545     -0.198038
O      15.59531     13.73726      6.64508        -0.597770     -0.061868      0.251964
O       3.91787      1.87890     10.74771         0.683641      0.218228      0.158932
O       3.92187     13.78941     10.62775        -0.006086      0.094120      0.419649
O      15.56481      1.86580     10.63552        -0.401241      0.199982      0.505909
O      15.53569     13.57224     10.77911        -0.000248     -0.092932      0.025572
O       3.73236      6.22132      2.39425         1.584951     -1.242247      0.067514
O       3.95404      5.83706     14.76308        -1.294181      0.048757      0.080547
O      15.48042      5.73818      2.64723         0.965556      0.092849     -0.559490
O      15.52029      5.74988     15.00550         0.536581      0.131283     -0.379789
O       3.96415      5.77057      6.38927        -0.854581     -0.383310      0.867191
O      15.59983      5.84004      6.64805         0.351601     -0.132639     -0.111037
O       3.87138      5.91344     10.83895        -0.001626     -0.145615      0.173810
O      15.55655      5.82985     10.64070         0.364283     -0.387578     -0.040857
O       3.84629      9.80559      2.64060         0.159141     -0.246837     -0.348805
O       3.78757      9.55050     14.98249         0.404341      0.645103     -0.032134
O      15.49738      9.80182      2.71344         0.490701      0.290392     -0.370600
O      15.60454      9.68160     15.06577        -0.312411     -0.134676      0.506297
O       3.86915      9.68935      6.62437         0.078823      0.471305      0.064573
O      15.59109      9.63711      6.66444         0.506822      0.565561     -0.637967
O       3.83548      9.80602     10.88660         0.148078     -0.730521     -0.293768
O       0.00178      9.89272     10.67320         0.105869     -0.274593     -0.036314
O       7.77542      2.09832      2.61094        -1.570131     -0.285298     -0.515204
O       7.83788      1.80675     14.99679        -1.041001      0.178640      0.373827
O       7.71646     13.61604      2.63363        -0.048898     -0.054168     -0.029148
O       7.66010     13.58577     14.89490         0.244518     -0.251902      0.076360
O       7.80887      2.02095      6.62891        -0.457855     -0.888266     -0.164481
O       7.76595     13.73214      6.55189         0.369121     -0.486933     -0.348177
O       7.82331      1.94737     10.74011         0.138277     -0.078045     -0.013482
O       7.73536     13.60737     10.93410         0.161109     -0.187601      0.318098
O       7.66948      5.92422      2.24173        -0.151425     -0.667054      0.402781
O       7.84556      5.61548     15.22840        -0.469026      0.706682     -0.512150
O       7.75074      6.00732      6.69010        -0.517759     -0.448045      0.151931
O       7.74733      5.95494     10.64298        -0.018765     -0.162634      0.101239
O       7.73772     10.04285      2.33237         0.509712     -0.606524      0.345935
O       7.73876      9.87831     14.89421         0.620810      0.070870      0.000898
O       7.74611      9.65801      6.73710         0.950041     -0.139113     -0.064194
O       7.68135      9.80968     10.81383         0.602224     -0.062794      0.068709
O      11.63025      1.95571      2.61847        -0.318857      0.154145     -0.562937
O      11.64536      1.77206     14.94973         0.216354      0.073644      0.060073
O      11.62466     13.77713      2.51618         0.198872      0.116155     -0.594375
O      11.70441     13.62167     15.10177        -0.183172      0.302718     -0.098670
O      11.68337      1.94536      6.50953        -0.499474     -0.043809      0.250965
O      11.67478     13.48983      6.75518        -0.435546      0.432691     -0.589422
O      11.67250      1.87851     10.86806        -0.491576      0.311901     -0.288057
O      11.57607     13.65788     10.63177         1.322917      0.091575     -0.016811
O      11.55671      5.90540      2.52451        -0.124612     -0.113296     -0.329178
O      11.60279      5.94042     14.91098         0.426970     -0.326094     -0.169775
O      11.67559      5.98018      6.44702        -0.244085     -0.678361      0.699306
O      11.61778      5.85358     10.92814         1.014580     -0.408035     -0.860652
O      11.60949      9.74613      2.42130        -0.892747     -0.009547      0.560981
O      11.66757      9.72611     14.90528        -0.160575     -0.394966      0.029813
O      11.69922      9.67343      6.51549        -0.453468      0.253658      0.394332
O      11.77414      9.55572     10.86406        -1.007787      0.714811     -0.259483
O       2.06838      3.91047      2.47195        -0.449435      0.977749     -0.064509
O       1.86929      3.91459     14.82048         0.709314      0.542167      0.386592
O       1.85531      0.03167      2.55003        -0.180562      0.244122      0.173132
O       1.62071      0.02805     14.72623         0.353859      0.375970      0.427160
O      13.55390      3.89821      2.69995        -0.019083     -0.347542     -0.198800
O      13.52051      3.82243     14.91736        -0.483331      1.026270     -0.278329
O      13.58850      0.13183      2.39306         0.173598     -0.780362      0.183524
O      13.74083      0.00184     14.78873        -0.298632     -0.034699      0.461905
O       1.88257      3.86006      6.83957         0.597643     -0.222787     -1.021421
O       1.93488      0.02088      6.53896         0.295857      0.278055      0.412853
O      13.65305      3.90275      6.65085         0.104879     -0.309834     -0.273240
O      13.47859     15.54559      6.73513         0.598858      0.494349     -0.312910
O       1.95851      3.89990     10.80046        -0.094366      0.363408     -0.268071
O       1.89278     15.53061     10.70049         0.044423      0.094389      0.611936
O      13.61641      3.82992     10.74884        -0.113791      1.052079      0.096597
O      13.60895     15.56311     10.67541        -0.053299     -0.140807      0.330393
O       1.80507      7.83029      2.59001        -0.571095     -0.437151      0.131700
O       1.87127      7.69687     14.95708        -0.079767      0.485658     -0.234288
O      13.67206      7.80262      2.56894        -0.483273     -0.632920     -0.120885
O      13.64974      7.74855     15.11843        -0.205499     -0.831597     -0.108178
O       1.95478      7.67359      6.47321         0.418234      1.087429      0.580725
O      13.63588      7.80100      6.52202         0.253173     -0.218530      0.491431
O       1.90646      7.79143     10.71481         0.088556      0.585764     -0.174518
O      13.72258      7.77565     10.84268        -0.197749     -0.355901     -0.430797
O       1.85117     11.73426      2.30032        -0.348783      0.104658      0.441686
O       1.81486     11.69549     15.07627         0.675803     -0.083354     -0.271889
O      13.55701     11.80373      2.34075        -0.357734      0.156313      0.488749
O      13.64799     11.63905     15.15449        -0.236321     -0.180620     -0.514806
O       1.77575     11.66898      6.63673         0.575512     -0.602185      0.124970
O      13.72789     11.65146      6.52594        -0.028000      0.379875      0.039850
O       2.06619     11.66892     10.75884        -0.178303      0.282326     -0.112524
O      13.50247     11.63742     10.92975         0.227433      0.010308     -0.651385
O       5.56949      3.94136      2.34029         0.437176     -0.006564      0.058249
O       5.80437      3.84797     14.94560        -0.018108     -0.434218      0.721743
O       5.74269     15.59685      2.51841         0.104673      0.777208      0.051158
O       5.73529     15.53057     14.97828        -0.020616      0.650035      0.250348
O       5.89248      3.85218      6.61510        -0.072968      1.471732      0.026036
O       5.85338     15.56675      6.57663        -0.203396      0.835726      0.320137
O       5.84870      3.98550     10.55173        -0.381152     -0.836285      0.605773
O       6.00865      0.06568     10.88455        -0.742315     -0.347505     -0.609090
O       5.85767      7.95386      2.46249        -0.005513     -1.059054      0.052041
O       5.93885      7.85334     14.93980         0.081735     -0.713991      0.109501
O       5.72541      7.77257      6.62134         0.070104      0.029783      0.009956
O       5.85447      7.78144     11.00476        -0.645846      1.446595     -0.309732
O       5.69660     11.73573      2.60214         0.306915      0.331338      0.628906
O       5.57186     11.63431     14.99363         0.181218      1.245477     -0.455966
O       5.86049     11.66407      6.65757        -0.230111     -0.110880     -0.085619
O       5.81246     11.73803     10.82949        -0.223212     -0.067144      0.056793
O       9.59710      3.95646      2.51470         0.248715     -0.049309     -0.203120
O       9.76329      3.76164     14.86539        -0.006990      0.563588     -0.215276
O       9.42125      0.03071      2.32001         0.613879     -0.497407      0.087068
O       9.69772     15.47758     15.03030         0.014418      0.352314      0.106164
O       9.58528      3.90750      6.55495         0.885726     -0.088140     -0.341211
O       9.70036     15.51733      6.86012         0.261046      0.825955     -0.451276
O       9.64467      3.94248     10.97510         0.587284     -0.710845     -0.754962
O       9.69906     15.48629     10.72433        -0.470912      1.935294      0.053639
O       9.47879      7.81950      2.20887         0.293996      0.765170      0.658005
O       9.57554      7.79123     14.96044        -0.050459     -0.037676     -0.164601
O       9.81509      7.76855      6.69865        -0.666913      0.846723      0.379021
O       9.73278      7.83901     10.71727        -0.134572     -0.097171     -0.098644
O       9.67329     11.71986      2.54979         0.596763      0.206646      0.319222
O       9.82663     11.69186     15.04375        -0.497655     -0.267580     -0.792931
O       9.70101     11.63084      6.66542        -0.439244      0.081704     -0.803616
O       9.81940     11.67785     10.86445        -0.363585     -0.926319     -0.007718
