  # total energy = -7878.57214892 
CRSYTAL
PRIMVEC
    15.6080000000000005    0.0000000000000000    0.0000000000000000
     0.0000000000000000   15.6080000000000005    0.0000000000000000
     0.0000000000000000    0.0000000000000000   16.6239999999999988
PRESSURE
0.221086 0.276156 0.831881 -0.302259 -0.178242 -0.063779
PRIMCOORD
320 1
Pb       3.94071      3.93190      4.14445        -0.441008     -0.464953      0.073877
Pb       3.97389      3.98875      0.05521        -0.340426     -0.213897     -0.331162
Pb       3.88590     15.60041      4.08063         0.040051      0.477387     -0.021676
Pb       3.82312     15.58239     16.59464         0.360296     -0.200371      0.516776
Pb       0.03373      3.86029      4.10447        -0.254081      0.072660      0.576352
Pb      15.53298      3.85824     16.61798        -0.241415      0.188327      0.091391
Pb      15.54397     15.59703      4.04189         0.403501     -0.317484      0.820403
Pb      15.54610     15.56572     16.60216        -0.268975      0.305394      0.013566
Pb       3.79275      3.86802      8.31057         0.005725     -0.549355     -0.143507
Pb       3.89174      0.02045      8.31864         0.175093     -0.210672     -0.440865
Pb      15.57030      3.84575      8.26462         0.098700      0.320454      0.339526
Pb       0.06352     15.57959      8.23127        -0.535390     -0.062380      0.130759
Pb       3.90566      3.91985     12.39717        -0.063944     -0.037604     -0.046951
Pb       3.85831     15.51420     12.35389         0.132682     -0.401660      0.328847
Pb      15.57970      3.81756     12.44250         0.098699      0.303830     -0.149762
Pb      15.55026      0.13183     12.50564         0.290706     -0.606891     -0.326443
Pb       3.85243      7.80909      4.23580         0.056911      0.357412     -0.501110
Pb       3.84157      7.75915      0.00357         0.427171      0.170201     -0.078779
Pb       0.10237      7.82599      4.16627        -0.132861      0.344245      0.067797
Pb       0.00694      7.76730      0.00471        -0.241949     -0.263295     -0.229208
Pb       3.99719      7.74661      8.15073        -0.582963      0.157664      1.036540
Pb      15.50721      7.78629      8.38613         0.456458     -0.329311      0.327042
Pb       3.90035      7.82995     12.45703        -0.091213     -0.087835     -0.558883
Pb       0.00451      7.83820     12.50272        -0.629768      0.509539      0.241058
Pb       3.86668     11.68255      4.10332         0.154671     -0.351853      0.005531
Pb       3.90172     11.62442     16.51005        -0.064284      0.716733      0.519454
Pb      15.59243     11.66299      4.11148        -0.343385      0.253222     -0.054048
Pb      15.57432     11.74245     16.56064        -0.091335      0.147188      0.534862
Pb       3.83982     11.65978      8.19349         0.797553      0.136585      0.092385
Pb      15.57143     11.65209      8.31282        -0.063920      0.147763     -0.433680
Pb       3.97157     11.68897     12.38375        -0.415760      0.170321      0.445520
Pb       0.08341     11.61023     12.35907        -0.678432      0.039154      0.893877
Pb       7.83535      3.83340      4.16320        -0.219352     -0.223579     -0.275691
Pb       7.84181      3.95003      0.05439        -0.477798     -0.377210     -0.658200
Pb       7.81213     15.52442      4.05392        -0.289411      0.159346     -0.011415
Pb       7.85522      0.08378      0.02413        -0.369565     -0.690530      0.138712
Pb       7.68622      3.93597      8.28893         0.607502     -0.075372      0.393975
Pb       7.80712     15.54982      8.31885         0.222476     -0.139461      0.330554
Pb       7.73626      3.85590     12.41768        -0.068077      0.047957      0.075250
Pb       7.73814     15.57628     12.48111         0.090763     -0.080811      0.259342
Pb       7.75538      7.82276      4.15204        -0.400165     -0.013231     -0.043422
Pb       7.85208      7.89665     16.60649        -0.734981     -0.343444     -0.242313
Pb       7.79079      7.77291      8.26207         0.045432      0.403016      0.647124
Pb       7.86285      7.68069     12.34667        -1.168977      0.147979      0.707497
Pb       7.89707     11.67928      4.22649        -0.513471      0.043575     -0.331035
Pb       7.74597     11.66762      0.01670        -0.095354      0.344782     -0.043781
Pb       7.69498     11.72527      8.18077         0.096334     -0.514103      0.818411
Pb       7.74645     11.58450     12.41931        -0.108924      0.638014      0.072833
Pb      11.71611      3.93194      4.20435        -0.034766     -0.730080      0.455851
Pb      11.74243      3.99564      0.02452         0.184964     -0.855989      0.033412
Pb      11.56506     15.55303      4.10943         0.888719     -0.072905      0.981633
Pb      11.61831     15.56806      0.03516         0.380861     -0.206370     -0.167675
Pb      11.75582      3.95470      8.28996        -0.920742      0.384445      0.969936
Pb      11.67895      0.05731      8.24125        -0.617357     -0.529442      0.695529
Pb      11.79942      3.85203     12.50398        -1.170800      0.053459      0.528480
Pb      11.81995     15.56136     12.43223        -1.095819      0.093393     -0.049663
Pb      11.69796      7.61104      4.06317         0.203742      0.806022      0.236204
Pb      11.51471      7.77672     16.60432         0.758751      0.149810      0.004733
Pb      11.62854      7.88311      8.20771        -0.352107     -0.800941      1.414354
Pb      11.62720      7.80269     12.53286         0.156651      0.373633     -0.038685
Pb      11.61218     11.52033      4.19480         0.663955      0.257899     -0.112585
Pb      11.75068     11.73876     16.56486        -0.438787     -0.065373      0.024910
Pb      11.88344     11.79764      8.32006        -0.876220     -0.148450     -0.361972
Pb      11.66487     11.77367     12.42624         0.074097     -0.263863      0.279553
Ti       1.97062      2.05730      2.15983        -0.197734     -0.017158      0.960276
Ti       1.94517      2.00181     14.66421        -0.797612      0.130510      0.054293
Ti       1.91446     13.74113      2.17927        -0.021117     -0.833413     -0.484765
Ti       1.84122     13.66464     14.76517         1.575131     -0.584044     -1.791820
Ti      13.64730      1.86992      2.35500         0.000426      1.396338     -1.034589
Ti      13.64367      1.84865     14.59361        -0.507368      1.394541      1.349292
Ti      13.66238     13.63003      2.20308        -0.246359      0.254291     -0.896180
Ti      13.60538     13.60454     14.61683         0.305843      0.150908     -0.399487
Ti       1.88067      1.79939      6.29140         0.766186      1.120353      0.290351
Ti       1.96950     13.59427      6.44793        -0.613602     -0.256718      0.229152
Ti      13.52659      2.00076      6.47081         0.697360     -0.599104     -1.587902
Ti      13.60379     13.72238      6.44652         0.420373     -0.805961     -1.276269
Ti       2.02036      1.83466     10.50986        -1.080698      0.673926      2.064901
Ti       1.90132     13.53802     10.49840        -0.222140      1.048016      0.336062
Ti      13.57440      1.95479     10.40827         0.133798      0.662684      0.917988
Ti      13.64881     13.67870     10.54144         0.132586     -0.070730      1.140055
Ti       1.82985      5.90540      2.17743         0.254774     -1.075793     -0.132415
Ti       1.99127      5.88528     14.53850        -0.958353     -0.527024      1.246284
Ti      13.56793      5.76900      2.37486         0.873043     -0.211715     -1.529072
Ti      13.72749      5.84982     14.69899        -0.941706     -0.341088     -0.843963
Ti       1.93415      5.75809      6.46862        -1.133814      0.076540      0.461457
Ti      13.65606      5.88510      6.49366        -0.186272     -0.981802     -0.213971
Ti       1.68310      5.92885     10.58704         1.360585     -0.993520     -0.747351
Ti      13.45353      5.94559     10.71608         0.631586     -0.207837     -1.699386
Ti       1.97819      9.79072      2.17539        -0.105848     -0.440660      0.490471
Ti       1.87758      9.73624     14.77229        -0.144334      1.016297     -0.789101
Ti      13.64180      9.70678      2.00172        -0.345005     -0.004719      2.915639
Ti      13.64597      9.70119     14.80578        -0.149581      0.071797     -0.335862
Ti       1.93149      9.66389      6.43375        -0.359764      0.076776     -0.974000
Ti      13.70665      9.67792      6.44032        -0.564299      0.960489     -1.322874
Ti       1.95085      9.73618     10.45490        -0.293091     -1.136719      0.453435
Ti      13.65164      9.78861     10.39306        -0.534284     -1.160523      0.866006
Ti       5.84202      1.95098      2.24726         0.073488     -0.543907      0.069410
Ti       5.70673      1.80551     14.80601         1.479782      0.730678      0.407771
Ti       5.76707     13.59953      2.26543         0.811778     -0.159874     -0.319895
Ti       5.81696     13.59790     14.56245        -0.135917     -0.345773      0.431119
Ti       5.82713      1.90441      6.35973        -0.574837      0.166316     -1.103737
Ti       5.88860     13.73446      6.27292        -0.336234     -0.463384      1.890775
Ti       5.82125      1.86243     10.44648         0.846768      0.358931      0.806217
Ti       5.81781     13.60737     10.36615         1.756679      0.226843     -0.976711
Ti       5.64446      5.84341      2.20571         2.473345      0.337568     -0.453840
Ti       5.80233      5.82847     14.68707         0.819934     -0.232162     -0.108378
Ti       5.83858      5.73404      6.37689         0.069076      0.276704      0.248285
Ti       5.62202      5.84210     10.41480         1.396217      0.062595      1.627015
Ti       5.82067      9.70108      2.15049         0.268147      0.669927      0.536039
Ti       5.78051      9.73013     14.61725         0.506267      0.043037      0.949503
Ti       5.83733      9.71967      6.28984         0.986124     -0.619767     -0.418417
Ti       5.81639      9.75761     10.49228         0.725132     -0.342745     -0.686098
Ti       9.78053      1.92534      2.29003        -0.123519      0.178975      0.502409
Ti       9.77929      1.84884     14.74382        -0.354982      0.974122     -0.958615
Ti       9.75234     13.58974      2.23267        -0.313659      0.184922     -0.887255
Ti       9.69783     13.57891     14.71017         0.139248      0.556048     -0.727028
Ti       9.61557      1.94356      6.51836         1.036099      0.664461     -1.086306
Ti       9.67954     13.63706      6.33411         1.017105      0.022258     -0.910113
Ti       9.68069      1.90883     10.61817         0.706139     -0.114186     -1.156969
Ti       9.62040     13.66905     10.60023        -0.208944      0.180045      0.266934
Ti       9.57256      5.79006      2.16444         0.097844     -0.261043      1.397793
Ti       9.77772      5.83118     14.74562        -0.547919     -1.241649      0.944857
Ti       9.72077      5.88758      6.32926        -0.014023     -0.695500      1.222042
Ti       9.65917      5.88555     10.56551         0.279107     -0.749629     -0.689199
Ti       9.68754      9.63345      2.25338         1.107144      1.028027     -0.222967
Ti       9.67469      9.75705     14.64080         1.412069      0.079656      0.311399
Ti       9.74815      9.74045      6.46934        -0.745527      0.210408     -0.504455
Ti       9.68719      9.75785     10.66581         0.193757     -0.407725     -1.669666
O       1.86248      2.16170      0.43143         0.422210     -0.359761     -0.973030
O       1.81682      1.76956     12.89541         0.653146      0.332757     -0.358476
O       2.00042     13.67647      0.39736         0.061812     -0.042098      0.124702
O       1.92970     13.63155     12.88076        -0.037556      0.090193      0.520412
O      13.58772      1.84314      0.56747         0.389341      0.103098      0.061270
O      13.48075      1.93045     12.82406         0.537458      0.164684      0.096813
O      13.71862     13.77773      0.35392        -0.092637      0.063842      1.083564
O      13.71102     13.54776     12.76802        -0.303413      0.440353      0.785194
O       2.05081      1.87183      4.55743        -0.310853     -0.014694     -0.350576
O       1.66787     13.46564      4.74298         0.468538      0.336276     -0.991748
O      13.56120      2.26953      4.67455         0.482880     -1.079925      0.386721
O      13.80549     13.63966      4.67658        -0.035580      0.060819     -0.197642
O       2.06739      1.85497      8.81059        -0.318665     -0.003004     -1.438759
O       2.06314     13.62617      8.72775        -0.328216     -0.359002      0.177215
O      13.71271      1.96296      8.63604        -0.255191     -0.230141      0.313015
O      13.51794     13.65419      8.78504         0.076580     -0.174757     -0.207694
O       1.81257      5.66626      0.39406         0.232927      0.869492      0.217893
O       2.00974      5.97816     12.80512         0.084279     -0.009200     -0.664054
O      13.80816      5.66164      0.60121        -0.422118      0.493784     -0.425339
O      13.52469      5.91407     12.86747        -0.012820     -0.169736      0.406169
O       2.00554      5.90215      4.73898        -0.080919      0.075213     -0.683609
O      13.49781      5.82133      4.70124         0.169633      0.339577     -0.484551
O       1.59051      5.92707      8.75598         0.577045     -0.313320      0.259894
O      13.59032      5.79582      8.86931         0.054991      0.156273      0.177437
O       2.08817      9.66287      0.41839        -0.390464      0.082304     -0.335359
O       1.95341      9.92482     12.98363         0.040538     -0.470125     -0.158972
O      13.85518      9.82875      0.29937        -0.830483     -0.218313     -0.080035
O      13.83751      9.81423     13.09686        -0.383675     -0.191457     -1.403307
O       1.89404      9.56327      4.58844         0.279514      0.357104      0.281127
O      13.49635      9.64317      4.64692         0.433422      0.106943      0.413323
O       1.82940      9.62653      8.69614         0.404369      0.425916      0.202711
O      13.68933      9.71759      8.58340        -0.330328      0.283236      0.999967
O       5.79609      1.76565      0.47575        -0.052400      0.314403     -0.273090
O       5.86909      1.87337     13.09056        -0.452750     -0.002571     -1.055064
O       5.67245     13.52583      0.52928        -0.108692     -0.062479     -1.000772
O       5.92325     13.74594     12.80430        -0.763046     -0.496115      0.221914
O       5.93381      1.86822      4.53804        -0.428191      0.395478      0.251488
O       6.01767     13.50486      4.56037        -0.437519      0.509961     -0.850207
O       5.81404      1.85252      8.69898        -0.034818      0.315873     -0.469405
O       6.06759     13.60408      8.47677        -1.085373      0.067725      1.459246
O       5.57211      5.82412      0.41698         0.224514      0.239250     -0.149979
O       5.63790      5.76017     12.87863         0.097571      0.367385      0.515968
O       5.77218      5.73119      4.61048        -0.091500      0.268977     -0.422102
O       5.82292      5.56031      8.70010        -0.252826      0.471315     -0.674971
O       5.90446      9.90385      0.34434        -0.062643     -0.448848      0.632353
O       5.70808      9.81484     12.82966         0.092456     -0.375148      0.173957
O       5.97168      9.47497      4.47524        -0.457759      0.482748      1.111154
O       5.93454      9.83086      8.72288        -0.544495     -0.362293     -0.165576
O       9.75416      1.58036      0.57684         0.281117      0.539408     -0.996549
O       9.75504      1.85512     12.94097         0.044505      0.369274      0.523555
O       9.81347     13.63714      0.37345         0.269980     -0.052311      0.985799
O       9.78238     13.59796     12.88908        -0.203944     -0.110812      0.755927
O       9.77250      2.19869      4.68763        -0.499800     -0.652501      0.592288
O       9.67570     13.56589      4.46583         0.019446      0.269052      1.425023
O       9.74023      1.71342      8.77957        -0.515124      0.376877      0.298924
O       9.57905     13.82935      8.84229         0.445875     -0.456786     -0.444377
O       9.77475      5.83921      0.44632        -0.288544      0.149851     -1.119849
O       9.89291      5.81298     13.04596        -0.508832      0.077657     -1.593533
O       9.61142      5.76560      4.55343         0.281848      0.077036      0.065076
O       9.67410      6.05317      8.80294        -0.112320     -0.539546      0.024518
O       9.74494      9.77731      0.49330        -0.080386     -0.320026     -0.361208
O       9.63681      9.65130     12.86826         0.300096      0.296849      0.197095
O       9.66979      9.70703      4.64045         0.418217      0.294951     -0.010024
O       9.53257      9.52286      8.84675         0.610894      0.591773      0.239363
O       3.88226      1.99631      2.52621         0.244687      0.071219      0.076647
O       3.77736      1.92744     15.06372         1.098910     -0.102995     -0.012675
O       3.78403     13.52643      2.73148         0.139118      0.479520     -0.171740
O       3.86236     13.22761     14.79278         1.009003      1.125329      0.203090
O       0.10100      1.95730      2.54701        -0.895352     -0.188535      0.351929
O      15.60423      1.86806     14.96254         0.071892      0.205337     -0.109472
O       0.03082     13.60314      2.51004         0.162813      0.694634      0.113796
O       0.01725     13.67241     15.05270        -0.718907      0.309200     -0.289463
O       3.87879      1.85907      6.65082         0.306855      0.200919      0.327054
O       3.93202     13.59762      6.63861         0.416171     -0.137345     -0.288106
O      15.60473      1.77627      6.58028        -0.136816      0.213782      0.371447
O      15.54618     13.58836      6.95733         0.722990      0.261208     -0.353105
O       3.94697      1.93608     10.80890        -1.303260     -0.184775      0.373890
O       4.02846     13.60802     10.66968        -2.488204     -0.030493      0.556307
O      15.57107      2.10620     10.85990         0.254225     -0.621842     -0.404770
O      15.56737     13.69064     10.80953         0.841219     -0.453088     -0.666828
O       3.87865      5.77228      2.57751        -1.303197      0.075978      0.109526
O       3.82432      6.03977     14.99259         0.379110     -0.193451     -0.122805
O       0.00430      5.90556      2.70815        -0.373830      0.360950     -0.180839
O      15.53798      5.81532     14.86758         1.627474      0.639464      0.233032
O       3.80729      5.70380      6.79263         0.540877      0.344670     -0.013210
O      15.51401      5.57523      6.66659         0.137202      0.851896     -0.112601
O       3.79911      5.96211     10.61758         0.507392     -0.292440      0.328222
O      15.49732      5.87223     10.97069        -0.542794     -0.132009      0.174141
O       3.97941      9.64402      2.60056        -1.432255      0.534854     -0.216513
O       3.92369      9.78037     14.98656        -0.133363     -0.149512     -0.213115
O       0.00221      9.64454      2.47989        -0.570487     -0.173123     -0.137318
O      15.59088      9.69817     15.07864         0.424194      0.236262      0.257979
O       3.89801      9.60249      6.63826        -0.252641      0.188380      0.028042
O      15.57798      9.71797      6.64623         0.010150      0.508763      0.029506
O       3.87671      9.69613     10.74080        -0.541285      0.087633      0.098450
O      15.53950      9.68695     10.80378         0.854029      0.133373     -0.126029
O       7.82021      1.86933      2.58585         0.006883     -0.193400     -0.180901
O       7.75791      1.81609     15.12756         0.125671      0.154951     -0.112145
O       7.75473     13.70781      2.33580         0.485187     -0.023117      0.614735
O       7.85310     13.67547     14.97280        -0.453633     -0.098752      0.101570
O       7.77558      2.01293      6.76576         0.162407     -0.271319     -0.196101
O       7.84050     13.52780      6.65383        -1.079028      0.523600     -0.666740
O       7.77949      1.81859     10.91482        -0.613654      0.762611     -0.229276
O       7.65722     13.60665     10.84895         1.684400      0.306008      0.098106
O       7.64180      5.87321      2.46978         1.741832     -0.015539     -0.125428
O       7.72635      5.81659     15.01450         0.044159      0.108560      0.070124
O       7.69781      5.83079      6.71831         1.013184     -0.573907     -0.349357
O       7.76661      5.77115     10.95001        -0.407178      0.203853     -0.195610
O       7.83204      9.66798      2.47857        -0.356837      0.068749      0.124200
O       7.90051      9.72225     15.04918        -1.119908     -0.054994     -0.147912
O       7.74372      9.60594      6.65549         0.267824      0.264265     -0.100922
O       7.73253      9.66299     10.98495        -0.088172      0.463954     -0.141667
O      11.77636      2.05426      2.72580        -1.122638     -0.644068     -0.602063
O      11.72392      2.06079     15.04671         0.195768     -0.500562     -0.102211
O      11.77538     13.75900      2.49770        -0.772157     -0.220675      0.024097
O      11.78123     13.57625     14.99759        -0.527549      0.629549     -0.250696
O      11.68223      1.78699      6.75009        -0.486364      0.664770     -0.136232
O      11.64508     13.69458      6.62901        -0.079371     -0.461005      0.463282
O      11.60958      1.74247     10.71165         1.016259      0.427894      0.335039
O      11.68181     13.57813     10.93963         0.486614      0.316297     -0.779427
O      11.65426      5.68431      2.56934        -0.170223      0.301794     -0.151816
O      11.69252      5.62919     15.05530         0.118153      0.870973      0.163950
O      11.60515      5.94523      6.78944         0.226820     -0.346084     -0.553273
O      11.59064      6.10172     10.93808         0.345467     -0.983471     -0.207987
O      11.69256     10.00166      2.47714         0.231405     -0.870297     -0.405069
O      11.73686      9.68241     15.06168        -0.742341      0.208686      0.093491
O      11.64764      9.66335      6.75946        -0.188055      0.505146     -0.341233
O      11.62941      9.82664     10.89050         0.679176     -0.322150     -0.336746
O       1.89336      4.00657      2.62512         0.516821     -1.000509     -0.062737
O       2.06912      3.99637     14.71343        -0.459516     -1.099788      0.242288
O       1.99796     15.59971      2.36287         0.065524      0.352112      0.518428
O       2.03702     15.57828     15.07097        -0.303146     -0.050940     -0.262493
O      13.77204      3.89791      2.58473        -0.134142     -0.043757      0.275114
O      13.84457      3.92455     15.00235        -1.085410     -0.967790     -0.283613
O      13.69490      0.02727      2.65779         0.036447     -0.424441      0.092207
O      13.71509      0.01017     14.82684        -0.247661     -0.284450      0.109608
O       1.88051      3.77050      6.73570         0.328919      0.429569      0.045537
O       2.06006     15.51050      6.67217        -0.649356      0.197340      0.289638
O      13.51393      3.86186      6.84331         0.233985      0.492266     -0.328184
O      13.60829     15.55690      6.71150         0.445765      0.892811      0.173392
O       1.95045      4.01943     10.92824         0.037589     -1.008586     -0.226072
O       1.97409     15.49390     10.76003         0.101700      0.976189      0.129366
O      13.37216      3.90896     10.91066         0.924796     -0.323275     -0.614977
O      13.74982      0.12633     10.85354        -0.393191     -1.640781     -0.367886
O       2.02796      7.74339      2.43871        -0.115819      0.498029      0.395865
O       1.73749      7.85326     14.92135         0.928415     -0.787639      0.289841
O      13.36250      7.81909      2.35286         0.644471      0.344976      0.184579
O      13.55869      7.74460     15.07812         0.389647     -0.184629      0.312513
O       1.75165      7.84182      6.71113         0.548051     -1.783898      0.090073
O      13.72734      7.72295      6.78089        -0.249079      0.454889     -0.330602
O       1.82689      7.82568     11.00700         0.468596      0.622894     -0.592796
O      13.59126      7.85978     10.82308         0.128829      0.221608      0.266933
O       1.88848     11.63027      2.46406         0.343900      0.021594      0.284130
O       1.80055     11.70878     15.17873         0.296379     -0.554696     -0.493656
O      13.68866     11.83826      2.44485         0.093756     -2.090153      0.119198
O      13.66869     11.79905     15.01137         0.307685     -1.198133      0.213405
O       1.98351     11.62630      6.76257        -0.244190      0.002955      0.052015
O      13.60793     11.67500      6.72043        -0.044461     -0.232779      0.356061
O       1.98640     11.61820     10.82681        -0.212294      0.770219     -0.576349
O      13.79354     11.59066     10.77867        -0.829211      1.580426     -0.393780
O       5.94854      3.85616      2.37811        -0.764473      0.097617      0.519764
O       5.78246      3.89796     15.10952        -0.391046      0.082458     -0.240091
O       5.71968     15.53382      2.54103        -0.047216      0.244044      0.373153
O       5.74954     15.44824     15.00039        -0.540953      0.682970      0.229063
O       5.88273      3.76493      6.61254        -0.481345      1.496722      0.379455
O       5.90678      0.04473      6.57223         0.033923     -2.033076      0.002434
O       5.83691      3.81327     10.87419        -0.251794      0.438101     -0.166408
O       5.81186     15.57670     10.72853        -0.098028      0.139783      0.129423
O       5.81043      7.81246      2.44842        -0.051422     -0.970419     -0.208140
O       5.87379      7.84690     15.12949        -0.139207     -0.159459     -0.647014
O       5.80294      7.66011      6.77201        -0.254830      0.005138     -0.644163
O       5.86805      7.81446     10.66376        -0.400828     -1.128343      0.300833
O       5.79072     11.65365      2.59545         0.227273     -0.400948      0.111354
O       6.11972     11.67158     14.86890        -0.722861     -0.334501      0.064096
O       5.87317     11.53023      6.50950        -0.340333      1.171103      0.066627
O       5.89644     11.72930     10.71226        -0.367389     -0.815208      0.401319
O       9.66410      3.82634      2.28274        -0.243607      0.650975      0.577227
O       9.63536      3.79759     15.21601         0.321400      0.187712     -0.304548
O       9.80824     15.58313      2.71585        -0.369978      0.050054     -0.515081
O       9.85231     15.55852     15.01849         0.031157      0.056817     -0.006345
O       9.80612      3.90042      6.89839        -0.523424      0.273700     -0.571746
O       9.62561     15.53702      6.59651         0.037820      0.767710      0.012248
O       9.72937      3.93013     10.86310         0.147248     -0.959392     -0.005407
O       9.61938     15.56225     11.02311         0.426251     -0.381542     -0.387116
O       9.86058      7.73139      2.41999        -0.221798      0.319591      0.338711
O       9.73499      7.73764     15.02619         0.256117      0.496828      0.147457
O       9.63857      7.78619      6.68909         0.278601     -0.362471     -0.397273
O       9.62849      7.76580     10.96844         0.440306      0.508610      0.180245
O       9.68917     11.77957      2.64972         0.140792     -1.046600     -0.567959
O       9.89216     11.66076     14.95950        -0.501906     -0.235135     -0.002499
O       9.68559     11.72679      6.76557         0.556622     -1.030393     -0.308099
O       9.64617     11.67165     10.92008         0.031767      0.203666     -0.263206
