  # total energy = -7882.95003497 
CRSYTAL
PRIMVEC
    15.6080000000000005    0.0000000000000000    0.0000000000000000
     0.0000000000000000   15.6080000000000005    0.0000000000000000
     0.0000000000000000    0.0000000000000000   16.6239999999999988
PRESSURE
-0.996673 -1.14805 -0.534137 -0.231692 0.385286 0.019668
PRIMCOORD
320 1
Pb       3.96778      3.82992      4.16458        -0.394818     -0.080085     -0.466903
Pb       3.86645      3.86372      0.03341        -0.271725     -0.299946     -0.216477
Pb       3.92096     15.60798      4.14417         0.217425      0.066381     -0.290449
Pb       3.84036     15.53333     16.59415         0.144783      0.310997     -0.364376
Pb      15.47849      3.84623      4.09590         0.482773     -0.193234      0.147349
Pb      15.58210      3.83505     16.58473        -0.816868      0.163324     -0.230125
Pb       0.03475     15.57881      4.09230        -0.323070      0.579555      0.704935
Pb       0.06391     15.60188      0.00740        -0.307693      0.253133     -0.403158
Pb       3.89760      3.89684      8.30164        -0.170522      0.157827     -0.199747
Pb       3.97098      0.14271      8.35747        -0.182789     -0.580729     -0.012873
Pb      15.55960      3.93514      8.23097        -0.175156     -0.363307      0.008053
Pb       0.06980      0.00089      8.27051        -0.155944      0.110076     -0.230319
Pb       3.72341      4.01068     12.57579         0.287185     -0.521884      0.118360
Pb       3.80953     15.46478     12.45304         0.247557      0.291861      0.303446
Pb      15.56620      3.84418     12.40120        -0.602011      0.192407      0.625306
Pb       0.05008     15.59795     12.45136        -0.394870     -0.289721     -0.182419
Pb       3.75381      7.85023      4.05521         0.207728     -0.561687      0.204093
Pb       3.79455      7.69920     16.56164         0.160929      0.334257      0.609022
Pb       0.00619      7.88679      4.01905         0.112545     -0.595451      0.331736
Pb      15.57829      7.78830     16.59866        -0.131083     -0.393161      0.154856
Pb       3.96668      7.79544      8.31618        -0.227397      0.208930     -0.065903
Pb      15.47374      7.78565      8.45086        -0.005489      0.185710     -0.642189
Pb       3.85292      7.85289     12.53902        -0.141732      0.451925     -0.687240
Pb      15.46992      7.73097     12.47094         0.146813      0.239963     -0.404336
Pb       3.91369     11.71092      4.13748         0.108898      0.331207     -0.476046
Pb       3.87151     11.67916     16.53201         0.300751     -0.001828     -0.160435
Pb      15.59985     11.81106      4.10984        -0.153626      0.132715      0.489937
Pb       0.03438     11.80569      0.07853        -0.173121     -0.028337     -0.467360
Pb       3.86125     11.79166      8.31105        -0.173004     -0.692420     -0.015894
Pb      15.45809     11.68981      8.19469         1.044052     -0.156686     -0.046918
Pb       3.81079     11.79790     12.43480         0.177494     -0.733600     -0.452825
Pb      15.58179     11.53737     12.39799         0.338627      0.071942     -0.072878
Pb       7.72343      3.77729      4.11043         0.386810      0.140677     -0.085705
Pb       7.62719      3.76240     16.57087         1.109000      0.341346      0.450962
Pb       7.71361     15.53564      4.10365         0.173741      0.044848      0.005033
Pb       7.77539     15.55120      0.01968        -0.353276      0.163596     -0.239819
Pb       7.75108      3.87131      8.43849         0.219981      0.088926      0.099897
Pb       7.87008     15.54241      8.42178        -0.383007      0.145729     -0.232630
Pb       7.79592      3.85985     12.51710        -0.051088     -0.254585     -0.756056
Pb       7.89851      0.05616     12.53036        -0.443558     -0.223700     -0.345566
Pb       7.71544      7.79420      3.99940         0.491158      0.360406      0.372402
Pb       7.78045      7.84324     16.53460         0.498629     -0.349742      0.099281
Pb       7.93314      7.85027      8.33769        -0.483715     -0.086173     -0.245380
Pb       7.93036      7.67446     12.49604        -0.441253      0.404454     -0.627150
Pb       7.78252     11.77881      4.04053         0.334930     -0.334828      0.104770
Pb       7.77100     11.62892     16.53906         0.229529      0.193567     -0.297617
Pb       7.66314     11.68045      8.30016         0.316986      0.007617      0.096654
Pb       7.79513     11.58771     12.48508        -0.245837      0.539770     -0.245681
Pb      11.75310      3.95623      4.28253        -0.396673     -0.456160     -0.260153
Pb      11.76315      3.98753      0.06781         0.245641     -0.525980     -0.455344
Pb      11.63936      0.11953      4.19715         0.266644     -0.184376      0.130034
Pb      11.64987     15.57117     16.57886         0.898782      0.488783      0.125259
Pb      11.63423      3.99305      8.34292         0.411975     -0.349146     -0.053591
Pb      11.48808     15.53097      8.24297         0.704226      0.636221      0.027222
Pb      11.72087      3.77780     12.45616         0.270718      0.303346     -0.561478
Pb      11.69448     15.48579     12.39759         0.437185      0.421111     -0.214795
Pb      11.76159      7.63264      3.97592        -0.753733      0.584227      0.682310
Pb      11.66319      7.77205     16.62350         0.017077      0.135032     -0.158402
Pb      11.64917      7.84114      8.14325         0.889480     -0.464726      0.665780
Pb      11.57733      7.82847     12.51806         0.707886     -0.320858     -0.824603
Pb      11.69456     11.65909      4.31117        -0.342149      0.374316     -0.516516
Pb      11.90179     11.74025     16.58605        -0.694841     -0.299146     -0.047479
Pb      11.74784     11.75738      8.34973        -0.436100     -0.070611     -0.962997
Pb      11.60949     11.67088     12.33547         0.305976     -0.057263      0.654442
Ti       1.93247      1.95326      2.12994         0.223828      0.317629      0.503891
Ti       1.89987      1.94283     14.66976         0.021554     -0.442589      0.259450
Ti       1.91918     13.73790      2.21400         1.344804     -0.277320     -0.778177
Ti       1.92359     13.58627     14.65413        -0.140833      0.736085      0.949714
Ti      13.63703      1.91897      2.20828        -0.145117     -0.115015     -0.400160
Ti      13.62481      1.81224     14.62842         0.000352      0.816115      0.904299
Ti      13.64110     13.74871      2.23280         0.068242     -0.271999      1.464255
Ti      13.66661     13.57447     14.62954         0.347687      0.847696      0.007247
Ti       1.98214      1.83820      6.31680        -0.745431      1.333949     -0.405363
Ti       2.02945     13.62657      6.39989        -1.194153     -0.214103     -0.617443
Ti      13.61388      1.91193      6.42133        -0.383310      0.004032      0.028165
Ti      13.61823     13.73089      6.41753         0.220600     -0.077526     -0.774207
Ti       1.97700      1.95301     10.55256        -0.549839     -1.173034     -0.208219
Ti       1.92550     13.63497     10.47888        -0.606899     -0.861628     -0.571651
Ti      13.73922      1.88349     10.47098        -1.251296      0.514461     -0.666199
Ti      13.67601     13.55948     10.42079         0.484920      1.043512      2.710757
Ti       1.92950      5.79596      2.16392         0.349561     -0.111131     -0.288756
Ti       2.03764      5.81806     14.67015        -2.171891     -0.544977      0.362157
Ti      13.60948      5.77692      2.27455         0.732270     -0.889621     -1.570945
Ti      13.68960      5.79460     14.67596        -0.043762     -0.899280      0.301814
Ti       2.00994      5.71468      6.36089        -0.666084      0.729034      1.349741
Ti      13.69471      5.81886      6.35321        -0.719195      0.226714      0.386007
Ti       1.96360      5.69216     10.49106        -0.784401      1.953341      0.486793
Ti      13.61055      5.87176     10.55320        -0.604069     -0.336243     -0.297294
Ti       1.88060      9.78122      2.16478         0.650017     -0.335963     -0.973411
Ti       1.86168      9.66966     14.73779         0.596550      0.734315     -0.773613
Ti      13.63942      9.85556      2.22405        -0.869007     -0.144871     -0.364300
Ti      13.69432      9.69050     14.74544        -0.749303      0.381103     -0.457157
Ti       1.98662      9.65083      6.44690        -0.370822     -0.107688      0.500853
Ti      13.65113      9.77555      6.26930         0.484565     -0.615069      0.183706
Ti       1.93776      9.61189     10.44828         0.152101      0.745581      1.235839
Ti      13.59198      9.76867     10.50920         0.288536     -1.910945     -0.192476
Ti       5.82211      1.95400      2.15710        -0.364982     -0.840096     -0.539416
Ti       5.83492      1.88972     14.61817        -0.827980     -0.756740      0.298656
Ti       5.87664     13.64852      2.13058        -0.854000      0.070831     -0.240075
Ti       5.84012     13.62175     14.69052         0.292505      0.430487      0.032936
Ti       5.83249      1.97908      6.47446        -0.077064     -1.013757     -1.539542
Ti       5.83048     13.65667      6.38391         0.201905      0.664488     -1.414117
Ti       5.76748      1.96233     10.60304         1.007513     -0.139642     -0.055989
Ti       5.84896     13.74336     10.56388         0.534168     -0.784848      1.229880
Ti       5.91164      5.84715      2.13262        -1.264114     -0.148571     -0.724378
Ti       5.89554      5.81014     14.73182         0.363936     -0.271151      0.401345
Ti       5.91995      5.84016      6.36239        -0.448969      0.645980     -0.005547
Ti       5.77096      5.89994     10.52238         0.449485      0.326234     -0.762661
Ti       5.78526      9.71818      2.15754         0.484037      0.556694      0.584364
Ti       5.89046      9.65603     14.63555        -0.721636      1.228073     -0.251926
Ti       5.89581      9.73397      6.29333        -0.501240     -0.378251      0.233125
Ti       5.75556      9.82363     10.49455        -0.098445     -0.540361      1.052628
Ti       9.72832      1.93574      2.22839         0.404793      0.091186      0.149613
Ti       9.74475      1.89390     14.68349         1.240524      0.632871     -0.663788
Ti       9.91612     13.64912      2.13929        -0.449738     -0.489115      2.552531
Ti       9.78106     13.66924     14.67118        -0.295515     -1.321391     -0.346838
Ti       9.60877      1.98057      6.40442         1.732432     -0.429593      0.206080
Ti       9.63577     13.63853      6.39584         1.654753     -0.283142     -0.627721
Ti       9.75968      1.94070     10.53428         0.244917      0.595536      1.096715
Ti       9.73158     13.63563     10.57481        -0.800863     -0.046208     -0.113034
Ti       9.65666      5.85577      2.15184         0.882954     -0.935056      0.080992
Ti       9.78574      5.80465     14.62624         0.271176     -0.511852      1.490736
Ti       9.68189      5.82999      6.39835         1.250894      0.078778     -0.671951
Ti       9.71866      5.84859     10.47580         1.150118     -0.376119      0.491922
Ti       9.73245      9.75759      2.17935         0.400059      0.352026      0.548523
Ti       9.84195      9.77105     14.61552        -0.085231      0.671477      2.095547
Ti       9.74427      9.76850      6.33441        -0.229318     -0.210519     -0.476368
Ti       9.68006      9.71710     10.47914         0.277733     -0.256195      0.156496
O       1.99730      1.91909      0.33819        -0.297003      0.225784      0.116560
O       1.84559      1.91575     12.89507         0.288302     -0.317056     -0.619864
O       2.00801     13.70054      0.37369        -0.287681     -0.017907      0.911533
O       1.97480     13.67879     12.89561        -0.305181     -0.255832     -0.925334
O      13.64455      1.88036      0.44047         0.152222     -0.058547      0.090117
O      13.69791      1.87996     12.84128        -0.126761     -0.087031     -0.368758
O      13.73574     13.59906      0.51713        -0.183376      0.095184     -1.582886
O      13.74863     13.53656     12.87071        -0.336529      0.215701      0.076325
O       2.13831      1.93656      4.52788        -0.249563      0.082475      0.433930
O       1.97830     13.70124      4.54273         0.211878     -0.464906      0.567578
O      13.56178      1.92683      4.61113         0.119572      0.067488      0.053889
O      13.72579     13.68615      4.61886        -0.247645     -0.422134      0.032717
O       1.97667      1.87239      8.75416         0.169290      0.170424      0.454052
O       1.86471     13.72784      8.68386         0.228295     -0.337794      0.119304
O      13.69657      2.01995      8.66491         0.313966     -0.463004      1.212971
O      13.62214     13.55829      8.71182        -0.002130     -0.264212     -1.691093
O       2.04200      5.77600      0.33599        -0.418425      0.108871      1.038844
O       1.89314      5.83990     12.89457         0.715641      0.037376     -0.569447
O      13.68370      5.55450      0.44526        -0.224270      0.926446      0.930468
O      13.66793      5.83008     12.88800         0.067585      0.165897      0.207206
O       2.06365      5.86938      4.65181        -0.210268     -0.025971     -1.581027
O      13.58441      5.71244      4.54346         0.111610      0.139159     -0.102818
O       1.95424      5.62395      8.75435        -0.016923     -0.082541     -0.610048
O      13.56845      5.85488      8.74154         0.544409     -0.048306     -0.138467
O       1.84859      9.63855      0.34403         0.360438      0.345585      1.033012
O       1.74853      9.65817     12.94335         0.426386     -0.048150      0.361511
O      13.66485      9.80196      0.40583        -0.131774     -0.184472      0.507703
O      13.80322      9.75884     12.96069        -0.365958     -0.338495     -0.367543
O       2.01195      9.61190      4.65585        -0.122178      0.062424     -0.811831
O      13.64216      9.88072      4.46786         0.498030     -0.484392      0.043300
O       1.93442      9.67696      8.71467        -0.028766      0.361285     -0.728640
O      13.68477      9.57110      8.73955        -0.113830      1.012039     -0.163293
O       6.01677      1.90240      0.32646        -0.437298      0.227568      0.690113
O       5.92509      1.96117     12.80658        -0.155764     -0.050215      0.551416
O       5.79821     13.61920      0.30817         0.344838      0.092499      0.922995
O       5.85015     13.65787     12.93252        -0.165997     -0.062680     -0.812075
O       5.73976      1.91473      4.57563         0.224379      0.442549      1.401667
O       5.76342     13.71802      4.53444         0.141955     -0.250623      1.111293
O       5.68489      1.74973      8.75173         0.505239      0.903751      0.459435
O       6.01731     13.73895      8.82600        -0.138230     -0.437561     -1.373691
O       5.89050      5.75844      0.30234         0.090979     -0.057345      0.403493
O       5.82559      5.77874     12.97788        -0.024178     -0.064311     -0.911879
O       6.02359      5.80504      4.59123        -0.478914     -0.088336     -0.324932
O       5.77897      5.94829      8.72077         0.232194     -0.341251      0.578086
O       5.81280      9.88186      0.40897         0.092610     -0.453038     -0.735693
O       5.84684      9.66811     12.87213         0.127988      0.142477      0.689297
O       5.99662      9.71801      4.47553        -0.619010     -0.145624      0.957468
O       5.71753      9.78405      8.73133         0.611619      0.131210     -0.136499
O       9.68780      1.73389      0.45200         0.016785      0.341286      0.107585
O       9.72291      1.87314     12.81663         0.269516      0.288856      1.300811
O       9.89044     13.59084      0.42675        -0.345091      0.180171     -1.362321
O       9.73464     13.51618     12.87939         0.520302      0.622263     -0.265939
O       9.64636      1.88016      4.61614         0.009615      0.311261      0.159738
O       9.77623     13.55104      4.64338        -0.133596      0.479181     -0.083057
O       9.75306      1.97099      8.80577        -0.406307     -0.281193     -1.217281
O       9.68322     13.63196      8.76254        -0.156786     -0.268059      0.333323
O       9.65573      5.68404      0.40188         0.597129      0.629007     -0.005944
O       9.69021      5.86081     12.84857         0.165822      0.155971      0.189674
O       9.81186      5.81907      4.59127        -0.401338     -0.067233      0.350271
O       9.89898      5.86059      8.70557        -0.805173      0.158532     -0.069714
O       9.96096      9.78749      0.44226        -0.779598      0.092701     -0.494895
O       9.74104      9.68495     12.88896        -0.009081     -0.135099     -1.436335
O       9.50799      9.58856      4.56679         0.664648      0.355944      0.585031
O       9.72553      9.70401      8.70121         0.065858      0.157364     -0.096172
O       3.87804      1.94053      2.37454         0.255467      0.502014      0.244484
O       3.89432      1.96877     15.04660         0.870577     -0.093437     -0.636576
O       3.92775     13.59535      2.40174        -0.841035      0.005451      0.510018
O       3.87894     13.63670     14.83589        -0.414481     -0.152265      0.708854
O       0.03800      1.91014      2.51287        -0.372142      0.156258      0.149042
O      15.56625      1.90309     14.99639         0.630373     -0.112476      0.046155
O       0.04044     13.83905      2.49401        -0.234241     -1.043608      0.096598
O       0.01363     13.81716     15.10757        -0.060348     -1.004587     -0.560968
O       3.92033      2.00841      6.67578         0.054498      0.041771      0.280731
O       3.92862     13.64595      6.72324        -0.326283     -0.189961      0.003361
O      15.57283      1.73358      6.55498         0.430850      0.415774      0.322420
O      15.59781     13.62873      6.60105         0.357688      0.129410      0.572097
O       3.86306      1.80614     10.96792         0.315320      0.897535     -0.406866
O       3.90318     13.55461     10.66029        -0.035348      0.398432      0.761966
O       0.02410      1.90171     10.77048         0.149863     -0.316642      0.222619
O      15.56353     13.55135     10.77232         0.513883      0.026432     -0.058130
O       3.97310      5.88434      2.43532        -0.193573     -0.400131      0.220029
O       3.86078      5.74741     15.09762         1.760769      0.287344     -0.801561
O       0.01957      5.85637      2.55947         0.224966     -0.166755     -0.018911
O      15.57316      5.69205     15.04924         0.684973      1.002616     -0.227876
O       3.88438      5.73127      6.63798         0.867237     -0.261794      0.269298
O      15.57886      5.70236      6.59882        -0.094495      0.507104      0.252315
O       3.88829      5.63593     10.77299         0.022310     -0.365245      0.499528
O       0.00623      5.87692     10.79257         0.736953      0.247158      0.048362
O       3.84122      9.67560      2.52564         0.336297      0.559393     -0.177885
O       3.81672      9.75779     14.92640         0.854035     -0.179351      0.120609
O       0.02166      9.63930      2.38823        -0.809401     -0.052980      0.684549
O      15.53695      9.63094     15.03047         0.953585     -0.162370      0.394598
O       3.92942      9.78215      6.80153         0.279907     -0.093407     -0.869833
O      15.58453      9.72927      6.61178         0.058150      0.259571      0.177897
O       3.88483      9.81922     10.87789        -0.137959      0.104395      0.236130
O       0.01036      9.58785     10.79241        -0.221035      0.294616      0.047817
O       7.64036      1.80099      2.57262         1.798437      0.002385      0.042338
O       7.88597      1.69381     14.95948        -0.184701      0.481210     -0.265287
O       7.78902     13.72254      2.53116        -0.077129     -0.234212     -0.529102
O       7.84655     13.75976     14.95717         0.047199     -0.206688      0.331225
O       7.78622      1.90668      6.80764        -0.895419      0.243991      0.013596
O       7.81408     13.71083      6.65174        -1.552019     -0.508472      0.317716
O       7.81738      1.92587     10.85651        -0.206509     -0.249061     -0.139811
O       7.84000     13.71125     11.02846         0.025132     -0.328520     -0.714271
O       7.83271      5.82052      2.37993        -0.932107      0.392095      0.590508
O       7.87235      5.84512     14.99730        -0.748014      0.287534     -0.359434
O       7.80256      5.92550      6.67835         0.129282     -0.269742      0.472590
O       7.82035      5.98464     10.74254        -0.921145     -0.051677      0.279409
O       7.80047      9.71055      2.44642        -0.118411      0.177139     -0.514910
O       7.86447      9.72708     14.94509        -1.091138     -0.194337      0.376363
O       7.76236      9.87713      6.81398         0.001378     -1.044036     -0.408234
O       7.77321      9.64011     10.80313        -0.101346     -0.145936     -0.054333
O      11.72106      2.00857      2.52888        -1.280870     -0.196303      0.083956
O      11.76677      1.87954     15.05968        -1.055103      0.424702     -0.353354
O      11.80183     13.62396      2.54176        -1.020069     -0.273121      0.007921
O      11.71135     13.52550     14.97532         0.870293     -0.119900     -0.048341
O      11.66498      1.82135      6.80474        -0.696651      0.510571     -0.627330
O      11.64684     13.65423      6.74560         0.117908     -0.558654      0.107715
O      11.73963      2.05586     10.80891         0.325281     -0.476194      0.228594
O      11.66715     13.58073     10.81420         0.232256     -0.265569      0.045896
O      11.67891      5.58351      2.52990        -0.168027      0.697423     -0.257965
O      11.73742      5.81350     15.09034        -0.609131     -0.143468     -0.399619
O      11.70601      5.82171      6.71239         0.227832     -0.124578     -0.393387
O      11.70816      5.77309     10.90001        -0.083008      0.152347      0.142594
O      11.72712      9.67288      2.51719         0.343209      0.454708      0.299120
O      11.71463      9.80437     14.91840         0.511015     -0.031617      0.131244
O      11.73934      9.79841      6.51877        -0.733191     -0.188411      0.233584
O      11.69237      9.70131     10.86503        -0.195627      0.352930      0.011144
O       1.95758      3.90877      2.47846         0.136521     -0.056456      0.133509
O       2.04380      3.89199     14.81327        -0.221425     -0.290854      0.550540
O       1.87266      0.06066      2.51200         0.937538     -0.944669     -0.304878
O       1.92594      0.02146     14.96191         0.434098     -0.463591      0.054708
O      13.73486      3.80729      2.47608         0.065195      0.504687      0.763154
O      13.70091      3.79815     15.04174        -0.479287      0.492762     -0.442829
O      13.58349     15.60253      2.58984         0.309265      0.303721     -0.038944
O      13.57027     15.53688     14.93984         0.219750     -0.331542      0.080714
O       1.84667      3.76939      6.71975         0.486470      0.538479     -0.240903
O       2.00014      0.00707      6.60904         0.177488     -1.002238      0.300703
O      13.60283      3.83495      6.60874         0.206650      0.623553      0.224876
O      13.50042     15.55467      6.72397         0.608147      0.022779      0.245459
O       1.87956      3.80867     10.99370         0.586038      0.370762     -0.647549
O       1.97287     15.52527     10.83657        -0.285881      0.400126      0.247862
O      13.80266      3.93447     10.84364        -0.478679     -0.904399     -0.025356
O      13.71480     15.48868     10.73737        -0.410030      0.843187      0.156321
O       1.98606      7.75168      2.45575        -0.267065      0.312121      0.324288
O       2.00023      7.73622     15.01240        -0.478452      0.054879     -0.002420
O      13.60070      7.63101      2.50744         0.218169      1.234078     -0.129946
O      13.57255      7.73993     15.07490         0.439558      0.198753     -0.088311
O       1.95271      7.75575      6.85429         0.042065     -0.378751     -0.583409
O      13.63403      7.82609      6.67654         0.263745     -0.616920     -0.634349
O       2.22361      7.76707     10.68536        -0.590912     -1.019084      0.399252
O      13.59580      7.80151     10.80239         0.295210     -0.216777      0.735943
O       1.81262     11.69555      2.46966         0.327401     -0.044971      0.048139
O       1.84435     11.67038     15.05219        -0.085718      0.285554     -0.349303
O      13.72078     11.72316      2.51447         0.323120     -0.466399     -0.020724
O      13.78982     11.69881     15.01074        -0.026266     -0.240967      0.301511
O       1.98365     11.67165      6.71258        -0.032796      0.660149     -0.127548
O      13.62856     11.68821      6.73641        -0.250237     -0.050535     -0.091626
O       1.98482     11.65318     10.84563        -0.382581      0.474265     -0.048453
O      13.62386     11.61926     10.84118         0.076429      0.474968     -0.389544
O       5.94906      3.90002      2.46195        -0.346052     -0.213196      0.053225
O       6.00943      3.79179     14.90793        -0.317273      0.621403     -0.013479
O       5.69365      0.01427      2.47997         0.514365     -0.720572     -0.190653
O       5.82705     15.58285     14.99445        -0.131319      0.342827     -0.083651
O       5.96237      3.89837      6.78493        -0.321448     -0.242991     -0.123496
O       5.74707     15.58615      6.71547         0.492932      0.250202     -0.179778
O       6.03282      3.84702     10.64602        -0.616940      0.300413      0.429214
O       5.83670     15.58047     10.85199        -0.053222      0.355380      0.281231
O       5.88919      7.76818      2.29076         0.144708      0.233557      0.466322
O       5.87797      7.76697     14.93723        -0.163424     -0.034133      0.351435
O       5.84518      7.79695      6.68729         0.134621      0.291597     -0.407775
O       5.52884      7.78435     10.91150         1.062855     -0.621630     -0.464614
O       5.82104     11.68180      2.52890         0.073089      0.221301     -0.107446
O       5.84614     11.71873     15.00905         0.362141     -0.937299     -0.188719
O       5.85700     11.72842      6.60389        -0.053971      0.026157      0.277377
O       5.85173     11.68980     10.92607         0.425986      0.170051     -0.308871
O       9.53794      3.80159      2.53060         0.315524     -0.204300     -0.145750
O       9.79778      3.86140     14.92272        -0.333491     -0.485761     -0.298429
O       9.86432     15.51193      2.61325        -0.523885      0.699146     -0.319457
O      10.05927     15.54305     14.92592        -1.212525      0.378338     -0.346873
O       9.74274      3.90188      6.81943        -0.451755     -0.321878     -0.540035
O       9.64009     15.59255      6.68311         0.316416      0.141615      0.380393
O       9.75904      3.96431     10.73317        -0.498641     -0.693379      0.595141
O       9.83657      0.01025     10.79345        -0.117205     -0.889796      0.208283
O       9.80364      7.80350      2.40013        -0.089886     -0.976870      0.045261
O       9.86972      7.81034     15.03414        -0.416974     -0.474324     -0.250450
O       9.82924      7.74926      6.75744        -1.033071      0.739702     -0.502848
O       9.82949      7.78574     10.84145        -0.278056      0.148542      0.262340
O       9.77543     11.73060      2.66024        -0.006960     -0.489752     -0.572601
O       9.68888     11.69468     14.94575         0.028399     -0.306190      0.127466
O       9.79088     11.62672      6.53481        -0.198781      0.474691      0.707178
O       9.69204     11.59105     10.84212         0.084493      0.934974     -0.061524
