  # total energy = -7880.67474444 
CRSYTAL
PRIMVEC
    15.6080000000000005    0.0000000000000000    0.0000000000000000
     0.0000000000000000   15.6080000000000005    0.0000000000000000
     0.0000000000000000    0.0000000000000000   16.6239999999999988
PRESSURE
-0.024433 -0.18727 0.458928 -0.268516 -0.137642 0.026834
PRIMCOORD
320 1
Pb       3.96845      3.95905      4.15979        -0.070915     -0.010164     -0.170719
Pb       4.02636      4.05257      0.10019        -0.663605     -0.933500     -0.573875
Pb       3.88885      0.00906      4.05033        -0.488784      0.075666      0.224561
Pb       3.79161     15.57418     16.60425         0.498360      0.322161      0.105708
Pb       0.06738      3.84882      4.10880        -0.472117      0.104725      0.882749
Pb      15.49192      3.84668      0.00756         0.380033     -0.139520     -0.357737
Pb      15.52758     15.59447      4.00930         0.816441     -0.548245      0.642077
Pb      15.51402     15.55861     16.60081         0.402371      0.197306     -0.286343
Pb       3.73082      3.84297      8.32718         0.628786     -0.283355      0.144038
Pb       3.89721      0.04334      8.32992        -0.605685      0.134857     -0.137999
Pb      15.56329      3.82250      8.25940         0.111595     -0.315440      0.482299
Pb       0.10781     15.57059      8.20138        -0.454077      0.362626      0.976312
Pb       3.91949      3.94432     12.36884        -0.328616     -0.523013      0.523354
Pb       3.84682     15.45499     12.30662         0.104104      0.528607      0.345233
Pb      15.58111      3.77707     12.43584         0.174124      0.564301     -0.174259
Pb      15.53320      0.22198     12.54075         0.553255     -0.624415     -0.562265
Pb       3.82853      7.82682      4.29678         0.185916     -0.269240     -0.734669
Pb       3.82396      7.74634      0.01666         0.072561      0.209342     -0.317775
Pb       0.18124      7.86183      4.19269        -0.612465     -0.013222      0.167573
Pb       0.01920      7.75125      0.02242         0.054358      0.121335     -0.291937
Pb       4.05986      7.72496      8.08664        -0.894278     -0.130929      1.338134
Pb      15.46517      7.78017      8.46049         0.463364     -0.087554     -0.217992
Pb       3.91078      7.85906     12.45679        -0.371429     -0.155795     -0.117795
Pb       0.00601      7.88968     12.54987         0.049567      0.191136     -0.198598
Pb       3.86094     11.67737      4.08874        -0.332175      0.033684      0.577106
Pb       3.91215     11.59925     16.46063        -0.040580      0.639171      0.835201
Pb      15.59133     11.65230      4.09844        -0.030780      0.454852     -0.116747
Pb      15.56234     11.77843     16.55112        -0.081072     -0.138478      0.464385
Pb       3.82503     11.64342      8.13414         0.456013     -0.009826      0.147605
Pb      15.55970     11.63692      8.32673         0.213339      0.132823     -0.032902
Pb       4.01963     11.69449     12.35298        -0.473761     -0.152168      0.026622
Pb       0.13724     11.56023     12.32183        -0.590675      0.272843      0.394218
Pb       7.86345      3.79718      4.18312        -0.446278      0.100956     -0.044824
Pb       7.86922      3.98848      0.09216        -0.812892     -0.753983     -0.526396
Pb       7.81922     15.48500      4.00922        -0.864453      0.084025      0.761986
Pb       7.89539      0.13553      0.06218        -0.710745     -0.569358     -0.138777
Pb       7.63556      3.97124      8.30175        -0.032536     -0.452343      0.193158
Pb       7.82927     15.52347      8.34420         0.354582      0.395753     -0.339510
Pb       7.69784      3.83938     12.40153         0.010950     -0.196538      0.514113
Pb       7.70447     15.56613     12.51739        -0.125981      0.246081      0.164928
Pb       7.72944      7.84812      4.16725         0.118275     -0.349141     -0.404028
Pb       7.87732      7.96436     16.60389        -0.470257     -0.354490     -0.163910
Pb       7.79241      7.77204      8.25862        -0.042872     -0.023650      0.252353
Pb       7.88075      7.61455     12.30939        -0.621804      0.806024      1.166742
Pb       7.95467     11.67424      4.28348        -0.614769      0.144558     -0.354622
Pb       7.71564     11.66009      0.04020        -0.143757      0.235024     -0.654700
Pb       7.64014     11.73881      8.12707         0.554610     -0.408388      0.317890
Pb       7.71628     11.53044     12.41120        -0.024146      0.384035      0.351974
Pb      11.73517      3.94969      4.27170        -0.010095     -0.205989     -0.266179
Pb      11.78211      4.05078      0.05634        -0.072222     -0.581194      0.421298
Pb      11.50470     15.52686      4.11875         1.285500     -0.045669      0.839438
Pb      11.57996     15.55150      0.07314         0.387304      0.068242     -0.397316
Pb      11.77607      4.01324      8.31591        -0.394000     -0.122633      0.530220
Pb      11.65895      0.09300      8.23094        -0.081365     -0.689329      0.512910
Pb      11.84834      3.83127     12.55777        -0.856384      0.363726     -0.258256
Pb      11.88712     15.54313     12.42346        -1.044104      0.040220     -0.058701
Pb      11.71364      7.51719      4.02616        -0.338291      0.604178      0.375174
Pb      11.41702      7.77434     16.61388         1.259338      0.096469      0.600471
Pb      11.58348      7.93230      8.18531         0.007911     -0.640500      0.782455
Pb      11.59468      7.82831     12.59570        -0.255714      0.067395     -0.329375
Pb      11.57896     11.40965      4.23197         0.926343      0.453617     -0.282017
Pb      11.78171     11.76873     16.54475        -0.349816     -0.495113     -0.024083
Pb      11.99633     11.87038      8.34110        -1.321751     -0.021477      0.516682
Pb      11.65358     11.82556     12.41535         0.075755     -0.466349      0.115243
Ti       1.98336      2.11134      2.16435         0.209208     -1.459585     -0.691008
Ti       1.93484      2.01554     14.64209         0.582883     -0.034563      0.636903
Ti       1.96221     13.72553      2.12475        -0.733187     -0.149767      1.285700
Ti       1.93933     13.64842     14.64843        -0.140001      0.121504      0.735755
Ti      13.66153      1.92252      2.36375        -0.212503      0.042059     -0.395622
Ti      13.57725      1.90487     14.66071         0.678903     -0.126305     -0.055868
Ti      13.61755     13.62674      2.17271         0.347492     -0.719607      2.162467
Ti      13.63146     13.62359     14.55672         0.177199      0.104124      0.798321
Ti       1.91291      1.84038      6.25375         0.049423      0.027435      0.437904
Ti       1.91750     13.53884      6.47819         0.157303      0.207878     -1.654813
Ti      13.56754      1.96726      6.42569         0.161233     -0.305601      0.543987
Ti      13.65935     13.71791      6.41989        -0.163535     -0.186316      0.081455
Ti       1.95322      1.89343     10.57287         0.129533     -0.343636     -1.105872
Ti       1.91876     13.56480     10.47325        -0.336193      0.634178     -0.323634
Ti      13.59673      1.99375     10.44057         0.396550     -0.393987     -0.330095
Ti      13.66903     13.68652     10.59380         0.432902     -0.253997     -1.446002
Ti       1.81861      5.88826      2.19093         0.964089     -0.038185     -0.133550
Ti       1.97888      5.89391     14.52305        -0.006619     -0.391967     -0.266074
Ti      13.64716      5.79608      2.32450        -0.808746      0.165984     -0.777456
Ti      13.73625      5.83381     14.65832        -0.368296     -0.091476      0.210786
Ti       1.83775      5.73717      6.49362         0.822999      0.724840     -1.062683
Ti      13.63266      5.85302      6.48004        -0.110628      0.492823     -1.126110
Ti       1.69120      5.86591     10.58463         0.744941     -0.118528      1.069080
Ti      13.41706      6.02523     10.66288         1.412196     -1.073613     -0.208017
Ti       1.96562      9.75990      2.15848        -0.004744      0.142077     -0.518934
Ti       1.88222      9.80814     14.75871         0.372554     -0.747010     -0.664308
Ti      13.64036      9.67555      2.09568        -0.232372      0.524970      0.113972
Ti      13.63792      9.67015     14.80764        -0.061634      0.538123     -1.282616
Ti       1.91260      9.60304      6.41811        -0.237108      0.284227      0.872497
Ti      13.65562      9.73358      6.40144         0.105004     -0.041220      0.244148
Ti       1.96362      9.68158     10.41957        -0.152629      0.367227      0.012563
Ti      13.61686      9.76797     10.44641        -0.291312      0.888223      1.425788
Ti       5.84813      1.90558      2.25259        -0.094569      0.083283     -0.314355
Ti       5.74340      1.81290     14.84609         0.314467      0.350119     -1.069508
Ti       5.77298     13.56263      2.26892         0.436772      0.367779     -1.030626
Ti       5.79307     13.55221     14.53105         0.494074      0.641250      1.708424
Ti       5.78645      1.86717      6.28005         0.471582      0.856399      0.906574
Ti       5.86681     13.73360      6.25294        -0.376022     -1.702223     -0.694314
Ti       5.84346      1.89423     10.44650        -0.645437      0.139321     -0.277434
Ti       5.86952     13.61165     10.29808        -0.539379     -0.051472      2.468896
Ti       5.70489      5.85784      2.18446        -0.015881      0.340698      0.432446
Ti       5.81909      5.84485     14.71290         0.093353     -0.458493     -0.177997
Ti       5.84766      5.72560      6.38195        -0.316382     -0.280221     -0.735547
Ti       5.62386      5.82972     10.45786         0.298344     -0.283890     -1.124289
Ti       5.84292      9.76359      2.20322        -0.049656     -0.881652      0.212477
Ti       5.79725      9.69285     14.65118         0.505318      0.124425     -0.629228
Ti       5.90436      9.67247      6.26715        -0.807401      0.695235      1.506343
Ti       5.80981      9.69984     10.41317         0.136964     -0.102747     -0.222671
Ti       9.78262      1.89438      2.34862        -0.306832      0.734275     -1.775499
Ti       9.81288      1.89209     14.74233        -0.813512     -0.275881      0.227134
Ti       9.74545     13.57750      2.19855         0.003204     -0.595388      0.372377
Ti       9.69186     13.61054     14.69676        -0.176113     -0.002539     -0.131216
Ti       9.62271      2.03480      6.52757         0.355322     -0.738093     -0.549414
Ti       9.73764     13.65554      6.32356         0.009364      0.210341      2.416594
Ti       9.73701      1.89306     10.58036        -0.011018     -0.137660     -0.115657
Ti       9.61268     13.69018     10.62465         1.281258     -0.147251     -1.366099
Ti       9.51692      5.77058      2.18144         2.520531      0.575186     -0.136988
Ti       9.74925      5.71570     14.82278        -0.525188      0.510241     -1.565924
Ti       9.72231      5.81551      6.38742        -0.377607      0.211614     -0.639091
Ti       9.60367      5.81823     10.56802         1.269697     -0.185154      0.483435
Ti       9.78945      9.69671      2.24679        -0.186699     -0.203880     -0.741952
Ti       9.73043      9.76682     14.66593        -0.219551      0.008291      0.197860
Ti       9.73393      9.75259      6.45379         0.076516      0.367622     -0.756150
Ti       9.71425      9.80217     10.59028         0.275520     -0.348944      0.321080
O       1.92632      2.17718      0.33980        -0.261432     -0.264845      1.291262
O       1.93791      1.79883     12.84315        -0.404122     -0.034668     -0.163464
O       2.02749     13.65746      0.39206         0.154228     -0.159331     -0.630053
O       1.89930     13.62997     12.91276        -0.065601      0.017588     -0.953741
O      13.68157      1.83353      0.60112        -0.003657      0.394554     -0.700699
O      13.56809      1.99399     12.83927         0.288628     -0.381263      0.061239
O      13.75222     13.84546      0.47994        -0.551357     -0.264097     -1.514609
O      13.64028     13.56174     12.79708         0.223865      0.235712     -0.569587
O       1.99609      1.80125      4.47190        -0.114225      0.634236      0.918994
O       1.69993     13.45748      4.68740         0.355253      0.364252      0.743333
O      13.61784      2.16784      4.70306        -0.092333     -0.577211     -1.329159
O      13.86306     13.58689      4.69227        -0.210837      0.175969     -0.466744
O       2.04290      1.80714      8.72066        -0.199963      0.230566      0.848942
O       2.07488     13.55400      8.67865        -0.265032      0.080943     -0.367123
O      13.64853      1.91541      8.64683        -0.191385      0.425743      0.616166
O      13.46739     13.68291      8.74629         0.440372     -0.204157      0.143438
O       1.78351      5.76479      0.39651         0.182112      0.199266      0.654220
O       2.04445      6.04534     12.71345        -0.004739     -0.565633      0.931053
O      13.77106      5.62319      0.53722        -0.056140      0.082449     -0.225840
O      13.42966      5.88069     12.90701         0.284301     -0.107065      0.269015
O       2.00485      5.89046      4.69064        -0.428061     -0.176278      0.550043
O      13.44583      5.88503      4.65363         0.450044     -0.219234      0.365158
O       1.54533      5.84787      8.84089         0.172369     -0.207333     -1.021594
O      13.56422      5.83335      8.87055         0.086482      0.297237     -0.597060
O       2.02315      9.66901      0.36018        -0.126130      0.001462      0.939987
O       1.91320      9.87938     12.94795        -0.108847     -0.238353      0.023987
O      13.63306      9.80822      0.34000         0.190917     -0.274317     -0.324541
O      13.81625      9.78298     12.97002        -0.459968     -0.314900      1.326317
O       1.91337      9.58169      4.63452         0.076572     -0.006254     -0.543411
O      13.55285      9.67066      4.67065        -0.154378      0.100960     -1.194124
O       1.90128      9.60542      8.65065        -0.054669      0.345409     -0.399567
O      13.59956      9.75638      8.66764         0.209506     -0.220754      0.127670
O       5.84046      1.77517      0.48490        -0.165844      0.250265     -0.345196
O       5.79925      1.81543     13.04515         0.125348      0.213236     -0.077469
O       5.61572     13.41695      0.46196         0.403070      0.214838      1.380597
O       5.81892     13.65198     12.78036         0.116460     -0.096717     -0.524948
O       5.86210      1.97336      4.50763        -0.019219     -0.098741      0.060684
O       5.99340     13.59348      4.46136        -0.381084      0.112228     -0.100520
O       5.78932      1.89416      8.64809         0.027319      0.116713      0.945430
O       5.93048     13.56118      8.57125        -0.178244      0.024026     -0.831842
O       5.52793      5.85907      0.39365         0.841717      0.065656      0.025823
O       5.60492      5.80170     12.92384         0.417884      0.124621     -0.332432
O       5.76778      5.77523      4.54576        -0.024863     -0.013739      0.014145
O       5.78232      5.59220      8.62197         0.358941      0.710800      1.062352
O       5.88039      9.88340      0.42970        -0.029103     -0.299846     -0.428360
O       5.66232      9.73037     12.85240         0.479728     -0.094214     -0.179533
O       5.87767      9.42390      4.54358         0.170927      0.301462     -1.462617
O       5.92110      9.78495      8.63913        -0.335883     -0.472591      0.295054
O       9.83723      1.62657      0.52737        -0.108469      0.529661      0.723485
O       9.76122      1.93231     13.01136        -0.085245      0.157578     -0.945644
O       9.92637     13.61179      0.46337        -0.311730      0.166424     -0.858916
O       9.76114     13.53062     12.93860        -0.259414      0.303093     -0.190150
O       9.66522      2.20833      4.73724        -0.064767     -0.373731     -1.264751
O       9.66630     13.56792      4.61779         0.171381     -0.258271     -2.525163
O       9.55631      1.65686      8.79399         0.561059      0.568233      0.515735
O       9.58579     13.79017      8.79911         0.197688     -0.149861      0.165278
O       9.69617      5.87384      0.33402        -0.107008     -0.176707      0.721634
O       9.77521      5.80165     12.99276        -0.145749     -0.090658      0.712838
O       9.69207      5.73962      4.57532        -0.110020     -0.158886     -0.086828
O       9.60263      6.07244      8.83237         0.155585     -0.766004     -0.374082
O       9.67921      9.72989      0.44262         0.099506     -0.233653      0.194875
O       9.71462      9.72311     12.90592         0.007049      0.036434     -0.784797
O       9.75645      9.80652      4.60626        -0.116718     -0.323690      0.088619
O       9.52300      9.49630      8.86482         0.515363      0.564533     -0.869342
O       3.89196      2.00518      2.52855        -0.353284      0.200865     -0.084626
O       3.84066      1.93858     15.08451         0.048633     -0.238651      0.004250
O       3.80923     13.57136      2.75550         0.781737      0.045804     -0.656703
O       3.90245     13.25674     14.77314        -0.513632      0.841690      0.159391
O       0.01972      2.01963      2.59758        -0.157724     -0.582461     -0.222749
O      15.59863      1.87447     14.92819        -0.336374      0.168435      0.018494
O       0.06040     13.78410      2.43324        -0.524892     -0.406042      0.123691
O      15.58333     13.68727     15.03574         0.090595      0.000516     -0.230460
O       3.91246      1.88461      6.69872        -0.174676     -0.229513     -0.583731
O       3.97894     13.50226      6.54772        -0.865834      0.219677      0.166386
O       0.00043      1.88529      6.56597         0.250665      0.192551      0.263156
O      15.55237     13.60592      6.92166         0.378074     -0.122348     -0.455473
O       3.85224      1.88138     10.88873         0.838392      0.257684     -0.298815
O       3.83351     13.57321     10.72723         1.709534      0.304118      0.122828
O      15.58990      2.03143     10.75215        -0.659897     -0.437886      0.528858
O       0.02278     13.66533     10.67906        -0.304190     -0.358831      0.239602
O       3.76740      5.76532      2.52669         0.552680     -0.112718     -0.148225
O       3.83945      6.00570     14.96059         0.129678     -0.423057      0.347762
O      15.53328      5.95716      2.72445         0.513260     -0.213324     -0.463674
O       0.06506      5.86973     14.84941        -1.185655     -0.358890      0.036497
O       3.80683      5.71188      6.85042        -0.231203      0.365547     -0.569696
O      15.50957      5.63817      6.67463        -0.003002      0.356535     -0.021890
O       3.77213      5.92376     10.55451         0.386427     -0.437933      0.574219
O      15.42881      5.85493     11.10628         0.666715      0.032968     -0.570591
O       3.86271      9.70206      2.56837         0.243430      0.106916     -0.065208
O       3.92113      9.82664     14.92504        -0.338951     -0.505725      0.268537
O      15.53070      9.54166      2.44970         0.822523      0.210768      0.216808
O       0.03328      9.68781     15.12803        -1.104030     -0.027953     -0.124273
O       3.91706      9.53815      6.57574        -0.483142      0.326091     -0.027651
O      15.57694      9.82948      6.56377         0.124361     -0.480720      0.497356
O       3.84758      9.72656     10.72806         0.894070     -0.129259      0.037626
O      15.59925      9.74844     10.78783        -0.455444     -0.010118     -0.223328
O       7.80797      1.79594      2.49004         0.146605      0.199716      0.356325
O       7.73011      1.80802     15.14596         0.721171      0.285954     -0.294637
O       7.80717     13.70822      2.34301        -0.292005     -0.305730      0.372084
O       7.78424     13.72389     15.03330         0.547612     -0.432683     -0.184747
O       7.75425      2.01781      6.78952        -0.557713     -0.117212     -0.448717
O       7.74407     13.46314      6.49717         0.728675      0.287026      0.666820
O       7.72215      1.94497     10.87828         0.247971     -0.157765      0.074567
O       7.77257     13.71137     10.84250        -1.574602     -0.397524     -0.133446
O       7.74766      5.88645      2.33290        -1.248249      0.065412      0.436197
O       7.74763      5.76646     14.98757         0.204378      0.100070      0.233171
O       7.78069      5.74308      6.63824        -0.503168     -0.084629      0.117748
O       7.71312      5.73910     10.93740         0.418104      0.097680     -0.484623
O       7.81465      9.62367      2.48304        -0.399334     -0.071714      0.402104
O       7.80538      9.69337     15.01428         0.324933      0.246231     -0.030575
O       7.75591      9.64275      6.68839         0.557488     -0.083319     -0.450370
O       7.70986      9.69464     10.93989         0.318420     -0.034802     -0.265186
O      11.66780      1.94997      2.63551         0.048400      0.055330      0.296539
O      11.75903      1.98768     15.02253        -0.639007     -0.076401      0.200307
O      11.70584     13.68203      2.50993        -0.136329     -0.115031      0.289408
O      11.74306     13.65707     14.92755         0.177774     -0.353266      0.250047
O      11.60544      1.89228      6.75005         0.435803      0.574471     -0.001273
O      11.64159     13.64085      6.64218         0.425328      0.015334     -0.080790
O      11.66905      1.72786     10.75600        -0.277278      0.409620     -0.027662
O      11.72462     13.58985     10.86908        -0.620155      0.471191      0.210086
O      11.61312      5.61161      2.54548         0.640950      0.339652     -0.073952
O      11.68233      5.72153     15.12663         0.292253      0.234010     -0.296041
O      11.60409      5.89127      6.69315         0.765447     -0.149902      0.478969
O      11.62702      5.94557     10.92132        -0.815840     -0.360377     -0.094322
O      11.72038      9.90838      2.35065        -0.731287     -0.279217      0.795500
O      11.68742      9.73818     15.05015         0.726738     -0.212837     -0.214166
O      11.63033      9.76002      6.73668        -0.035151     -0.451008     -0.144876
O      11.68023      9.79964     10.83760        -0.269319     -0.042980     -0.146397
O       1.85808      3.94262      2.59590         0.040113      0.318830     -0.200285
O       1.99492      3.90421     14.60196        -0.265045      0.358749      0.450208
O       2.03324      0.03251      2.40503         0.017046     -0.097315     -0.008958
O       2.02342     15.58955     15.07770        -0.226944     -0.883256     -0.599553
O      13.74710      3.89183      2.65413        -0.310122     -0.267033     -0.088506
O      13.66271      3.85567     14.91096         0.246353      0.421214      0.456401
O      13.62046     15.59001      2.69198        -0.147071      0.401532     -0.080664
O      13.64084     15.58848     14.79371         0.172404      0.151137      0.312859
O       1.93335      3.79182      6.79367        -0.275295     -0.099380     -0.585177
O       2.01624     15.51556      6.72702        -0.209256      0.245063     -0.420035
O      13.52414      3.91649      6.80854         0.036716      0.064189     -0.124772
O      13.62079      0.05096      6.73912         0.072988     -0.769798     -0.571825
O       1.85858      3.86712     10.85631         0.199651      0.729965      0.048256
O       1.95836     15.56501     10.76698        -0.198511      0.001702      0.264465
O      13.43908      3.85409     10.81613         0.292510      0.032468      0.062682
O      13.73011     15.58893     10.75515        -0.243463      0.619213      0.775474
O       2.00030      7.78940      2.49002        -0.407478     -0.394769      0.178796
O       1.91141      7.78801     14.94981         0.104890      0.381521      0.214346
O      13.35756      7.77127      2.34278         0.568121     -0.463568      0.399575
O      13.69977      7.68507     15.16869        -0.375867      0.599081     -0.624744
O       1.80542      7.66817      6.80384        -0.053358      0.520978     -0.389526
O      13.73604      7.77372      6.79361        -0.403362     -0.323873     -0.126179
O       1.87478      7.88559     10.92128        -0.328152     -0.971740     -0.356473
O      13.60940      7.87663     10.91857         0.027073      0.145843     -0.293214
O       1.92834     11.64504      2.50700        -0.310419     -0.257308     -0.058367
O       1.80495     11.66018     15.14881         0.254444      0.667421     -0.637719
O      13.72436     11.68251      2.45033         0.107616      0.506992      0.088789
O      13.68396     11.73017     15.05794        -0.002426     -0.240403     -0.191396
O       1.92991     11.59987      6.71686         0.190863     -0.236429      0.112218
O      13.58766     11.65199      6.71109         0.290778      0.690383      0.032310
O       1.94491     11.67403     10.71809        -0.168918     -0.419341      0.234137
O      13.64951     11.71787     10.69585         0.155370     -0.860370      0.171105
O       5.87204      3.84609      2.42636        -0.135255      0.631997      0.159251
O       5.71139      3.88716     15.11103         0.410021      0.279430     -0.169658
O       5.70517     15.57392      2.57889         0.327566     -0.764247     -0.247519
O       5.71268     15.44426     15.03808        -0.263264      0.214843     -0.061761
O       5.77685      3.83674      6.62185         0.150669     -0.571213     -0.128024
O       5.96426     15.53087      6.54340        -0.390284      1.182606      0.106525
O       5.78418      3.87795     10.83185        -0.064088     -0.312018      0.049430
O       5.83136     15.57581     10.63748        -0.172533     -0.455852      0.198133
O       5.74847      7.73339      2.35394         0.156751      0.166822      0.516130
O       5.94311      7.81531     14.96492        -0.607828     -0.323999      0.326387
O       5.81096      7.61388      6.60250         0.335998      0.877458      0.156180
O       5.88317      7.69657     10.61307        -0.236861      0.691517      0.403757
O       5.85799     11.59857      2.60659        -0.029089      0.677253      0.139607
O       6.03273     11.63980     14.83997        -0.149562      0.138027      0.373880
O       5.85404     11.54389      6.46920        -0.059443      0.094133      0.167940
O       5.82889     11.65555     10.70403         0.215568      0.466339      0.049531
O       9.57814      3.87325      2.30216        -0.083712     -0.778424      0.521349
O       9.63832      3.77622     15.19895         0.599737      0.595946     -0.204121
O       9.74656     15.54387      2.69304         0.201772      0.115823     -0.458660
O       9.88218     15.55776     14.97469        -0.311613      0.097287      0.351516
O       9.72671      3.92457      6.84229         0.155429      0.126242      0.329267
O       9.67090     15.60477      6.50965        -0.257513     -0.470324      0.391236
O       9.77432      3.84017     10.89890        -0.114333     -0.082458     -0.496939
O       9.64936     15.52842     11.06970         0.254053      1.130417     -0.198522
O       9.86072      7.73066      2.48525        -0.333908      0.277049     -0.015977
O       9.85118      7.77877     14.99728        -0.820936     -0.307986     -0.244477
O       9.62798      7.73931      6.64689         0.251771      0.553253      0.086351
O       9.78715      7.78822     10.97879        -0.585152     -0.166116      0.046791
O       9.68335     11.63472      2.56039         0.019557      0.890051      0.083919
O       9.82755     11.63320     14.93216        -0.317155      0.851198      0.582455
O       9.70406     11.63141      6.66428        -0.235837      0.084224      0.086818
O       9.63233     11.74938     10.94403         0.193743     -1.068207     -0.474400
