  # total energy = -7882.04116068 
CRSYTAL
PRIMVEC
    15.6080000000000005    0.0000000000000000    0.0000000000000000
     0.0000000000000000   15.6080000000000005    0.0000000000000000
     0.0000000000000000    0.0000000000000000   16.6239999999999988
PRESSURE
-1.17502 -1.45474 -1.99017 0.210056 -0.458085 -0.061672
PRIMCOORD
320 1
Pb       3.75459      3.83134      4.15315         0.318480     -0.237921     -0.014107
Pb       3.76235      3.75910     16.52016         0.553402      0.333335      0.280046
Pb       3.91444     15.45351      4.25563         0.174989      0.402854     -0.795324
Pb       4.01115      0.00677      0.00594        -0.195980     -0.092145     -0.484981
Pb       0.02658      3.94046      4.15773         0.018915     -0.265584     -0.125025
Pb       0.01365      3.92456      0.01657         0.166098     -0.094322     -0.274438
Pb       0.05616     15.54947      4.29579        -0.133220      0.024913     -0.865686
Pb      15.60009     15.59505     16.61906        -0.018996     -0.275658      0.042409
Pb       4.05840      3.97798      8.25358        -0.319883     -0.028898     -0.758927
Pb       3.88750     15.46155      8.32381        -0.255678      0.465462     -0.468445
Pb       0.05165      3.93203      8.28824         0.349718     -0.104485     -0.386371
Pb      15.53942     15.57907      8.37940        -0.108939     -0.099185     -0.479133
Pb       3.92673      3.78002     12.37184         0.010007      0.859835      0.597840
Pb       3.97452      0.14860     12.43502        -0.272105     -0.271385      0.426137
Pb      15.55276      3.96337     12.48496        -0.161924     -0.019372     -0.295440
Pb      15.59896     15.46333     12.30575        -0.829423      0.471368      0.967133
Pb       3.97376      7.69598      4.09575        -0.024629      0.388423      0.066164
Pb       3.89178      7.84910      0.04727        -0.203073     -0.074646     -0.671626
Pb      15.46204      7.71634      4.14555        -0.072426      0.132862     -0.373947
Pb      15.59494      7.76203      0.01439         0.161019     -0.103250     -0.579275
Pb       3.81760      7.82088      8.30863         0.087448     -0.461703     -0.456622
Pb       0.08045      7.79405      8.14140        -0.248426      0.011296      0.445409
Pb       3.81183      7.76560     12.41095         0.215061     -0.371846      0.274549
Pb       0.02485      7.73998     12.36758        -0.570349      0.321533      0.265694
Pb       3.94919     11.60731      4.25439        -0.025693      0.131606     -0.914053
Pb       3.87774     11.69281      0.06101        -0.317625     -0.140628     -0.302507
Pb       0.05023     11.61670      4.18986        -0.653039      0.594529     -0.210659
Pb      15.60499     11.55485     16.53883        -0.098225      0.501291      0.250823
Pb       3.92113     11.59387      8.42608        -0.433859      0.344934     -0.468602
Pb       0.05860     11.73835      8.34285        -0.471070      0.025346     -0.073648
Pb       3.77929     11.67436     12.54062        -0.019373      0.171791     -0.487055
Pb      15.40526     11.84246     12.50775         0.347805     -0.743045     -0.044883
Pb       7.87901      4.00710      4.11253        -0.579098     -0.296662     -0.232856
Pb       7.80919      3.78075      0.08109        -0.263755      0.234162     -0.460510
Pb       7.91148      0.05568      4.21674        -0.455521     -0.560293     -0.459672
Pb       7.80807     15.50109     16.54193        -0.338140     -0.159070     -0.064985
Pb       7.92264      3.86116      8.16180        -0.546885      0.341378     -0.043482
Pb       7.70004      0.01983      8.23824         0.237462     -0.386125      0.111215
Pb       7.83041      3.95687     12.57037         0.473296      0.138512     -0.658881
Pb       7.75359     15.59725     12.35164         0.631382      0.574272      0.288219
Pb       7.88726      7.77399      4.18526        -0.520876      0.053683     -0.695351
Pb       7.73626      7.56526      0.09083         0.486119      1.001383     -0.721075
Pb       7.70337      7.73882      8.31272         0.044056     -0.049267     -0.288469
Pb       7.63967      7.98187     12.54107         0.301900     -0.530679     -0.032794
Pb       7.79284     11.61527      4.15513         0.081341      0.282952     -0.634147
Pb       7.87216     11.65443      0.05010        -0.092541     -0.203660     -0.266564
Pb       7.90887     11.60226      8.44863        -0.239330      0.279201     -0.443427
Pb       7.75089     11.84050     12.48303         0.172358     -0.360038     -0.093125
Pb      11.57761      3.88224      3.94929         0.479474      0.012091      0.024179
Pb      11.61689      3.71046     16.59177         0.304998      0.343360     -0.184215
Pb      11.87741      0.03305      4.15863        -0.166230     -0.192375     -0.573237
Pb      11.78583     15.59768     16.57722        -0.357166     -0.157126      0.209748
Pb      11.66996      3.72469      8.18563         0.075155      0.383972      0.208703
Pb      11.82605     15.50977      8.36670         0.141787     -0.198157     -0.104540
Pb      11.55226      3.94749     12.32772         0.029545     -0.135729      0.307598
Pb      11.62513      0.08836     12.54992         0.078195     -0.189715     -0.385274
Pb      11.65339      8.09550      4.22720         0.341258     -0.779877     -0.191941
Pb      11.79413      7.74214     16.59060        -0.347318      0.417247     -0.564546
Pb      11.70927      7.67862      8.36741         0.246950      0.569936     -0.537582
Pb      11.83776      7.70010     12.43422        -0.190483      0.314757      0.180575
Pb      11.68791     11.97513      4.08230         0.080115     -0.578683     -0.070835
Pb      11.54446     11.66838      0.06302         0.553584      0.066839     -0.578097
Pb      11.53281     11.58300      8.24498         0.432196      0.233990      0.153718
Pb      11.68467     11.54459     12.54528         0.011697      0.155833     -0.116307
Ti       1.89547      1.91691      2.19435         0.025933     -0.282611     -0.210487
Ti       1.83701      1.83606     14.66125         0.472910      0.116067      0.547775
Ti       1.95549     13.58958      2.23204        -0.787645      0.372115      0.547033
Ti       1.94112     13.58756     14.63314        -0.636240      0.254088      0.698963
Ti      13.61467      1.94919      2.15107         0.448731     -0.320813      0.106472
Ti      13.54668      2.00543     14.56981        -0.306201     -0.057485      0.789274
Ti      13.73568     13.67362      2.18958        -0.316766     -0.082171     -0.444912
Ti      13.61664     13.68334     14.72657         0.008832     -1.037436     -0.712475
Ti       1.86024      1.95318      6.40397         0.531645      0.320502      0.270417
Ti       1.89383     13.64206      6.36512        -0.211205      0.005156     -0.142399
Ti      13.62083      2.01334      6.26169         1.501449     -0.682119     -0.114715
Ti      13.64801     13.65533      6.39636        -0.080689     -0.578770     -0.761328
Ti       1.93734      1.94699     10.53699        -0.266638     -0.078492     -1.323589
Ti       1.94643     13.67998     10.54140        -0.385553     -0.874761      0.422972
Ti      13.62402      1.98133     10.55474        -0.226223     -0.936426     -0.297234
Ti      13.57084     13.53265     10.57654        -0.221981      1.203740     -0.463237
Ti       1.95447      5.87740      2.18854        -0.988387     -0.101932     -0.648521
Ti       2.03495      5.73049     14.58085         0.222311      1.337730      0.688580
Ti      13.56434      5.89481      2.13491         0.106652      0.005024     -0.457198
Ti      13.67880      5.82135     14.60386        -0.733533      0.676396      0.997368
Ti       1.91125      5.90620      6.23815         1.135476     -1.231679      0.331225
Ti      13.64259      5.79619      6.29043         0.737671      1.147674     -0.550269
Ti       1.97285      5.72566     10.53450        -0.458003      0.990519     -1.250346
Ti      13.63126      5.80021     10.35320         0.160063      0.270914      1.946976
Ti       1.83838      9.71240      2.28829         1.046474      0.096303     -1.025185
Ti       1.96612      9.70246     14.65765        -0.654194     -0.438701      0.194215
Ti      13.60461      9.76699      2.22701        -0.555259      0.505828     -0.600422
Ti      13.66456      9.70361     14.66017        -0.631209     -0.047298     -0.338427
Ti       1.86265      9.80085      6.27445         0.265833     -0.241143      0.273684
Ti      13.61475      9.78266      6.42277        -0.454143     -0.243402      0.269851
Ti       1.90887      9.71247     10.60514        -1.497324      0.461747     -0.534863
Ti      13.61414      9.68342     10.38425         0.424560      0.221881      1.283799
Ti       5.81416      1.94220      2.21262        -0.396491     -0.103110      1.666285
Ti       5.84126      2.02415     14.59291        -0.886500     -0.230417      0.694520
Ti       5.81533     13.63901      2.18968         0.764382      0.040362      1.076945
Ti       5.80696     13.60262     14.59376         0.259036      0.928677      1.485068
Ti       5.73333      1.88805      6.29955        -0.146510      1.339930     -1.018960
Ti       5.83294     13.61169      6.40926         0.427898     -0.074764     -0.085433
Ti       5.84016      2.03620     10.46631         0.735952      0.190462     -0.037332
Ti       5.78163     13.74198     10.57524         0.654475     -0.722311     -0.461139
Ti       5.82916      5.84011      2.12270         0.214335     -0.280059      1.036784
Ti       5.89150      5.90281     14.59640        -0.583162     -0.188999      0.518490
Ti       5.90718      5.94191      6.32320        -0.562723     -0.698070      0.177403
Ti       5.84833      5.88450     10.47411         0.530321     -0.164781      0.584793
Ti       5.79829      9.70545      2.16828         0.376946      0.396097      0.115283
Ti       5.85461      9.77942     14.71237         0.239531     -0.542272      0.493070
Ti       5.72632      9.88077      6.32345         0.645153     -1.250414      0.022154
Ti       5.72834      9.79643     10.55201         0.579652      0.122769      0.128138
Ti       9.65361      1.88399      2.16892         0.306018      0.082545      0.456402
Ti       9.62910      1.90206     14.68518         0.666045      0.453861     -1.623649
Ti       9.69134     13.70394      2.18160        -0.118560     -0.426158      0.129716
Ti       9.76545     13.66202     14.64759         0.187759     -0.298006      0.021446
Ti       9.77266      1.75172      6.33294        -0.581367      0.862213     -0.855445
Ti       9.74269     13.59425      6.31864        -0.519968      0.040640     -0.711480
Ti       9.73778      1.99142     10.37986        -0.765278     -0.205693      1.297534
Ti       9.78961     13.64289     10.50931        -0.240350      0.013154     -0.409507
Ti       9.77795      5.90689      2.14328        -0.062626      0.020049     -0.121799
Ti       9.77071      5.84921     14.60843        -0.199560      0.528092     -0.179493
Ti       9.87813      5.80581      6.31781        -1.334268      0.035378      0.203668
Ti       9.70631      5.92689     10.41143        -0.461908     -0.655542      0.062181
Ti       9.76323      9.76872      2.20214        -1.262492      0.347021     -0.696677
Ti       9.74290      9.68861     14.65628         0.367060     -0.769603      0.040923
Ti       9.63942      9.66776      6.31348         0.204161      1.517676      0.960595
Ti       9.63152      9.74185     10.61177         0.771946      0.644156     -0.502041
O       1.91976      2.00716      0.35883        -0.220045     -0.172620      0.332516
O       2.00867      2.01325     12.91275        -0.321284     -0.242399     -0.183528
O       1.87578     13.53813      0.49163        -0.029759      0.228530     -0.568566
O       1.84757     13.65987     12.85394         0.469678     -0.233857      0.050133
O      13.49121      1.83983      0.34966         0.207668      0.346999     -0.009437
O      13.43160      2.13458     12.82145         0.377116     -0.343030     -0.329393
O      13.72751     13.66956      0.35799        -0.313418      0.229873      0.066187
O      13.51666     13.55093     12.87750         0.288925      0.071201      0.505870
O       1.74232      1.97136      4.63109         0.541038     -0.271636     -0.688837
O       1.74216     13.66764      4.52908         0.525059     -0.136505      0.911360
O      13.63477      1.90798      4.47631        -0.186568      0.248553      0.216576
O      13.62012     13.57683      4.54298        -0.185239      0.594335      1.046326
O       1.78427      1.93724      8.71165         0.272986     -0.021524      0.978089
O       1.80464     13.77598      8.76043         0.225565     -0.323782      0.521974
O      13.59109      1.79889      8.71273        -0.093535      0.561502      0.781378
O      13.68655     13.69560      8.76410        -0.222644      0.252896      0.044112
O       1.98890      5.81815      0.35400        -0.080870     -0.268960      0.902695
O       2.00435      5.70397     12.79156        -0.445868      0.136904     -0.122091
O      13.41544      6.03360      0.31993         0.617335     -1.062392      1.044503
O      13.62880      5.86001     12.83527         0.112398     -0.059891     -0.618433
O       1.97529      5.75947      4.42794        -0.496763      0.759194      0.771243
O      13.83237      5.91433      4.50143        -0.659437     -0.217345     -0.337153
O       1.82618      5.89809      8.67007         0.347383     -0.331615      1.132747
O      13.70423      5.75378      8.63024        -0.037993     -0.078356     -1.059996
O       1.91925      9.77224      0.48389        -0.194335     -0.099939     -0.064171
O       1.90737      9.70542     12.84801         0.130377      0.008005      0.719344
O      13.47891      9.79001      0.42243        -0.028851      0.096501      0.615151
O      13.69647      9.53833     12.87100        -0.087885      0.293345      0.017416
O       1.83957      9.83304      4.49832         0.173572     -0.117341     -0.235395
O      13.54412      9.64147      4.64519         0.263228      0.168535     -0.590266
O       1.88824      9.62852      8.78616         0.227107      0.457622      0.333983
O      13.65200      9.69712      8.62887        -0.026907      0.007177     -0.420467
O       5.85028      1.89382      0.47945        -0.261903     -0.072512     -1.633259
O       5.61600      2.03192     12.80933         0.907805      0.019732      0.201648
O       5.93463     13.73548      0.45066        -0.447430     -0.049295     -0.798179
O       5.78255     13.67200     12.84992        -0.341350     -0.246403     -0.742694
O       5.65480      1.99983      4.47026         0.449357     -0.275577      1.609503
O       5.65472     13.50887      4.64344        -0.102753      0.217273     -0.037667
O       5.78059      1.99694      8.69575         0.273132     -0.297692     -0.381777
O       5.94032     13.89985      8.75584        -0.569164     -0.520351      0.428081
O       5.79569      6.06962      0.34928         0.138234     -0.600832      0.646999
O       5.85868      5.83137     12.81948         0.348104      0.132601     -0.587448
O       5.92972      6.08436      4.52904        -0.144158     -0.790567      0.437695
O       5.83035      5.94379      8.71106        -0.125359     -0.239408     -0.517354
O       5.82762      9.61562      0.36898        -0.179588      0.380555      0.300456
O       5.93302      9.71665     12.89242        -0.514578      0.368245     -0.197346
O       5.71217      9.89593      4.50757         0.047168     -0.221240      1.267740
O       5.55560      9.89026      8.77013         0.426863     -0.621381     -0.114884
O       9.65204      2.02500      0.35992         0.004357      0.128786     -0.282889
O       9.65356      1.90773     12.87419        -0.076638     -0.060887      0.003981
O       9.64041     13.67273      0.35793        -0.142689     -0.304646      0.206846
O       9.86173     13.69848     12.86042        -0.297596      0.004496      0.144752
O       9.70289      1.76920      4.46952         0.313404      0.204060      1.149691
O       9.61445     13.81673      4.45368         0.810260     -0.348935      1.205408
O       9.80612      2.06429      8.58335         0.015288     -0.243280     -0.377857
O       9.59269     13.52470      8.64253         0.124560      0.044264      1.220508
O       9.66907      5.69622      0.34560         0.255512      0.243111      0.356679
O       9.58812      5.93242     12.81081         0.267461     -0.184968     -0.465467
O       9.71907      6.04617      4.54304        -0.038585     -0.613096      0.438045
O       9.77743      5.76217      8.60624         0.400320      0.303649      0.178660
O       9.69781      9.91833      0.36608         0.419367     -0.119867      0.597432
O       9.65081      9.55014     12.80660        -0.223741      0.467774      0.219708
O       9.64130      9.74730      4.54638         0.135909     -0.382258     -0.100914
O       9.69404     10.05490      8.74127        -0.234800     -0.667373      0.644505
O       3.81045      2.07113      2.49978        -0.163952     -0.151628     -0.169296
O       3.91351      1.95750     14.98760        -0.628743     -0.241788      0.161716
O       3.86389     13.64882      2.48848        -0.191076      0.014512      0.201284
O       3.77285     13.64086     15.10053         1.124312     -0.228837     -0.445943
O      15.50474      1.91841      2.36517         0.175365      0.620541      0.058876
O      15.48179      1.95889     14.98085         0.482915      0.026864     -0.340620
O      15.52888     13.75381      2.48059         0.989757     -0.356587      0.239456
O      15.55198     13.52220     14.91085        -0.067387      0.613526      0.106815
O       3.85488      1.98085      6.67787         0.050049     -0.224103     -0.001444
O       3.76254     13.59809      6.76434         0.655818      0.114547     -0.107592
O       0.00501      2.10653      6.61526        -0.867083     -0.611683      0.454347
O      15.51005     13.69212      6.75066         0.940962     -0.669428     -0.103549
O       3.89027      2.04216     10.78060        -0.955798     -0.807571     -0.184954
O       3.86345     13.66011     10.81926        -0.353038      0.411986     -0.135978
O      15.48112      1.93298     10.91592         0.628162      0.116745     -0.229881
O      15.55881     13.63277     10.86528         0.295646      0.467344     -0.016643
O       3.80081      5.86258      2.59388         1.602684      0.048806     -0.729282
O       3.96845      5.85896     14.84549        -1.461878     -0.397770      0.194666
O      15.55461      5.99786      2.27972        -0.687700     -0.635776      0.436670
O      15.54617      5.86355     14.87757         0.563533     -0.815658      0.275835
O       3.97060      5.91086      6.72711        -0.636476     -0.059397     -0.446031
O       0.05489      5.83104      6.45321        -0.136498      0.426246      0.641859
O       3.86315      5.85445     10.81804        -0.233720      0.167424     -0.361524
O      15.58418      5.71536     10.85600        -0.053157      0.131811     -0.255477
O       3.84358      9.69098      2.42999        -0.000244     -0.001720      0.431051
O       3.83251      9.77855     15.08468         0.069404     -0.085139     -0.472228
O      15.45957      9.67891      2.43539         0.475601      0.353966      0.447476
O      15.58573      9.67492     15.12277         0.609760      0.117097     -0.547946
O       3.76837      9.96565      6.58780         1.026719     -0.517291      0.204030
O      15.59282      9.71447      6.51147        -0.209466     -0.196001      0.668186
O       3.81460      9.80873     10.95357         0.140577     -0.343284     -0.115092
O      15.48380      9.71387     10.83093         0.986680     -0.027775     -0.119673
O       7.74225      1.98242      2.40963         0.624629      0.087514      0.536452
O       7.67077      1.95322     14.91716         0.569944     -0.234824      0.219266
O       7.72777     13.65891      2.55323        -0.328094     -0.089351     -0.083994
O       7.80586     13.65629     14.89616        -0.344187     -0.315268     -0.134193
O       7.80565      1.78902      6.57608        -0.135189      0.230204      0.038488
O       7.74767     13.68753      6.48009        -0.239433      0.351661      0.597369
O       7.79579      1.95982     10.75452        -0.518266     -0.026981     -0.088290
O       7.69761     13.70118     11.00851         0.268638     -0.454689     -0.681845
O       7.81805      5.84572      2.49262        -0.334285      0.437261     -0.243328
O       7.79335      5.97867     14.87478        -0.438703     -0.294241      0.472788
O       7.86370      5.89084      6.75534        -0.495744      0.129399     -0.393538
O       7.80151      5.82429     10.57886        -0.143304      0.366868      0.415580
O       7.76198      9.75749      2.55422         0.204322     -0.005236     -0.125378
O       7.71256      9.85305     15.07850         0.406809     -0.286092     -0.638000
O       7.69951      9.86434      6.60402         0.070903     -0.208314      0.270437
O       7.68697      9.79567     10.74055         0.489893      0.076502      0.040358
O      11.66009      1.91422      2.41200        -0.809832     -0.068603      0.466206
O      11.58861      1.93930     14.88418         0.242823      0.124763      0.568256
O      11.61236     13.66619      2.35649         0.107449      0.208319      0.523279
O      11.67802     13.67029     15.06881        -0.365885     -0.247336      0.002862
O      11.78500      1.89144      6.59760        -1.178626      0.246509     -0.004386
O      11.67501     13.64452      6.66498         0.189967      0.272250     -0.062490
O      11.55446      1.93380     10.83774         0.849865      0.136516     -0.322198
O      11.65949     13.55843     10.68772        -0.815579      0.206472     -0.009988
O      11.62827      5.91410      2.53101         0.163685     -0.445878     -0.030275
O      11.65887      5.98887     14.70296        -0.422320     -0.238942      0.566574
O      11.76787      5.74913      6.56599        -1.196132      0.178124      0.208709
O      11.67670      5.91415     10.71094        -0.123956     -0.444180     -0.039062
O      11.58567      9.83424      2.69853         0.910079      0.226495     -0.601113
O      11.68430      9.58689     14.78505        -0.563949      0.484562      0.348342
O      11.66313      9.77864      6.72118        -0.453354     -0.491249     -0.255956
O      11.74251      9.88246     10.81395        -0.759047     -0.647433     -0.180010
O       1.81393      3.86936      2.57690         0.020120      0.632694     -0.458608
O       1.91252      3.85031     15.00596        -0.284173     -0.048476     -0.117815
O       1.83486      0.04228      2.55363         0.489047     -0.293850     -0.119477
O       1.91261     15.51586     15.05740        -0.339543      1.161606     -0.309495
O      13.40746      3.92588      2.32178         0.708963      0.261393      0.162352
O      13.41873      3.93594     14.96156         0.761811     -0.435654      0.172344
O      13.65241     15.59923      2.55815        -0.633057      0.145491     -0.145768
O      13.43879      0.00003     14.88924         0.883272      0.271936     -0.230829
O       1.98130      3.94917      6.48182         0.011107      0.025513      0.789213
O       1.85976     15.51726      6.69930         0.074094      1.145055     -0.252511
O      13.75757      3.92408      6.49277        -0.548673     -0.979389      0.575317
O      13.79397     15.58661      6.60344        -0.836016      0.554722      0.044452
O       1.95638      3.83724     10.74576        -0.426221      0.332056      0.184611
O       1.90590      0.06673     11.00576         0.259000     -0.529687     -0.970614
O      13.56567      3.88797     10.73438        -0.166129     -0.239191     -0.033921
O      13.48431     15.54359     11.01519         0.457900      0.828270     -0.635879
O       1.82954      7.82618      2.52615         0.438114     -0.712745      0.038775
O       1.92629      7.67016     14.94161         0.163073      0.978208     -0.189718
O      13.45983      7.85593      2.46835         0.172456     -0.228896      0.289733
O      13.65072      7.80031     15.09652         0.118673     -0.473227     -0.440551
O       2.00951      7.84051      6.62997        -0.195498     -0.051252     -0.334716
O      13.58754      7.69199      6.71626         0.179622      0.524928      0.010534
O       1.85145      7.77015     10.86733         0.591859     -0.179117     -0.041326
O      13.60231      7.72685     10.66159         0.087870      0.178516     -0.043876
O       1.81527     11.68785      2.56092         0.062159      0.012684      0.032526
O       1.92440     11.65166     14.97765        -0.031459     -0.170926     -0.193273
O      13.60701     11.77459      2.61872        -0.052953     -0.906546     -0.464188
O      13.56857     11.60968     14.85445         0.100969      0.542042      0.398666
O       1.83548     11.70376      6.72256        -0.388086      0.140797     -0.097928
O      13.66928     11.66411      6.71801         0.124601      0.262072     -0.142679
O       1.84689     11.72128     10.86742         0.449220      0.110633     -0.277282
O      13.65804     11.70802     10.79568         0.122094     -0.754506      0.179799
O       5.95266      3.93367      2.45145        -0.595452      0.959137     -0.136931
O       5.87272      3.94747     15.06588         0.065644     -0.677863     -0.524256
O       5.72812      0.04510      2.60854        -0.048118     -0.914985     -0.147090
O       5.75433     15.52835     14.85345         0.031558      0.821844      0.464357
O       5.83066      3.93087      6.59236         0.317720     -0.286665      0.192954
O       5.65415     15.58758      6.60159         0.322473     -0.105802      0.091309
O       5.76073      3.94104     10.77882         0.276551     -0.110426     -0.119828
O       5.79350      0.10767     10.87237        -0.149687     -0.782986     -0.071360
O       5.89634      7.81236      2.54652        -0.532089     -0.636074     -0.140172
O       5.76378      7.85026     14.88515         0.250859     -0.116788      0.044809
O       5.80105      7.83255      6.64803         0.116946      1.296954      0.256830
O       5.82956      7.81860     10.71442        -0.362623      0.407340      0.489769
O       5.78593     11.62338      2.50654        -0.103967      1.142416     -0.315736
O       5.74937     11.74430     14.99291        -0.111917     -0.299288     -0.011969
O       5.79199     11.70990      6.82787        -0.233106      0.495259     -0.259953
O       5.71436     11.74626     10.81583         0.247159      0.182135      0.111286
O       9.69326      3.90673      2.55759         0.217839     -0.003999     -0.054299
O       9.59443      3.86527     14.69944         0.174609      0.781714      0.970440
O       9.57122      0.02081      2.40236         0.265577     -0.054852     -0.181923
O       9.69570      0.02093     14.93949        -0.077328     -0.719139      0.270083
O       9.66870      3.88998      6.47725         0.585664     -0.135921      0.092454
O       9.80978     15.56021      6.70796        -0.091284      0.343376     -0.030177
O       9.67292      3.91127     10.72296         0.353374      0.112823      0.248545
O       9.65266     15.56420     10.72342         0.229681      0.067753     -0.176337
O       9.78839      7.84879      2.41256        -0.482216     -0.429176     -0.029720
O       9.68946      7.81448     15.06582        -0.401237     -0.090404     -0.087040
O       9.66747      7.88893      6.73159         0.460350     -1.303792     -0.012165
O       9.75878      7.87978     10.61579        -0.139852     -0.615121     -0.187957
O       9.69487     11.69823      2.49007        -0.175787      0.794443      0.093761
O       9.82069     11.62826     14.84963        -0.209203      0.866617      0.253260
O       9.75304     11.73616      6.50313        -0.237425     -0.168097      0.268256
O       9.68392     11.71088     10.97916        -0.413202      0.198740     -0.153501
