  # total energy = -7879.47943107 
CRSYTAL
PRIMVEC
    15.6080000000000005    0.0000000000000000    0.0000000000000000
     0.0000000000000000   15.6080000000000005    0.0000000000000000
     0.0000000000000000    0.0000000000000000   16.6239999999999988
PRESSURE
-0.529343 -0.44117 -0.45436 0.005926 -0.110801 -0.102973
PRIMCOORD
320 1
Pb       3.76289      3.83377      4.10737        -0.135911     -0.266823      0.283307
Pb       3.74742      3.74843     16.61658        -0.222520     -0.166674      0.183718
Pb       3.93249     15.43215      4.30773        -0.370618      0.401353     -0.119309
Pb       3.98985     15.58773      0.08946        -0.496300     -0.052941     -0.085003
Pb      15.56002      3.86577      4.14425        -0.122302      0.146443      0.117776
Pb      15.56899      3.97191     16.59058         0.136488     -0.916079      0.209048
Pb       0.11171     15.60015      4.28845         0.163136      0.226724     -0.739367
Pb      15.60767     15.54326      0.02578        -0.032240      0.407208      0.017338
Pb       4.02543      4.05317      8.32969         0.060452     -0.351972     -0.432406
Pb       3.88246      0.07077      8.50076         0.167757     -0.632472     -0.464021
Pb       0.11622      3.94524      8.22918        -0.705118     -0.327241      0.535105
Pb       0.02603      0.09039      8.33379        -0.015357     -0.480847      0.505057
Pb       3.95781      3.93075     12.29760        -0.628229     -0.012961      1.218479
Pb       3.92059      0.09950     12.32262        -0.679311     -0.610940      0.173498
Pb      15.49665      3.75548     12.28194         0.320547      0.457995      0.322310
Pb      15.41704     15.58336     12.33968         1.523391     -0.479735     -0.212484
Pb       3.91958      7.66977      4.25444        -0.025340      0.688487     -0.264354
Pb       3.84276      7.83035      0.03147        -0.181494      0.493001     -0.545965
Pb      15.52752      7.76049      4.10554        -0.439268     -0.227783      0.362421
Pb       0.02529      7.79218      0.02652        -0.199151     -0.029063     -0.209038
Pb       3.98251      7.86717      8.25026        -0.531735     -0.574590      0.229180
Pb       0.19002      7.86890      8.02440        -1.024520     -0.010921      0.916436
Pb       3.74785      7.82771     12.50272         0.457909     -0.129061     -0.218836
Pb       0.03488      7.74419     12.40130         0.118537     -0.028746     -0.567367
Pb       4.00474     11.61014      4.28612        -0.334413      0.139372     -0.118278
Pb       3.91609     11.63671     16.58649        -0.213701      0.053417     -0.426062
Pb       0.06958     11.71718      4.24710        -0.026630      0.014078     -0.553303
Pb       0.04077     11.64280      0.00518        -0.206377      0.544789     -0.203859
Pb       3.88833     11.45992      8.29493         0.452709      1.598003      0.255072
Pb      15.52533     11.72712      8.39682         0.086167     -0.042802     -0.336898
Pb       3.78115     11.75445     12.62141        -0.009965      0.227607     -0.654285
Pb      15.38037     11.69012     12.42490         0.516680      0.193562      0.149331
Pb       7.83278      4.07643      4.12474         0.189747     -0.812860     -0.032481
Pb       7.69620      3.69560      0.10941         0.283897      0.214171     -0.436327
Pb       7.82445      0.04614      4.14258         0.349111     -0.321515      0.089505
Pb       7.80852     15.38840     16.56057         0.361042      0.524951      0.895751
Pb       7.84327      3.99340      8.08802         0.097694     -0.792496      0.687902
Pb       7.71819     15.56231      8.40277         0.397475     -0.153808      0.003939
Pb       7.76878      4.16187     12.46279         0.022300     -0.519305      0.821789
Pb       7.80886      0.11049     12.45658         0.205627     -0.458375     -0.829179
Pb       7.69278      7.76130      4.07438        -0.001943      0.443165     -0.291601
Pb       7.92011      7.69513      0.01192        -0.464318      0.219722     -0.612540
Pb       7.70992      7.78941      8.42444         0.334627     -0.014484     -0.425132
Pb       7.70975      7.94878     12.58106         0.038679     -0.783528      0.379418
Pb       7.74219     11.67245      4.13185        -0.096707      0.151380      0.059295
Pb       7.90157     11.50058      0.03625        -0.496705      0.399043      0.046842
Pb       7.68380     11.58283      8.43797        -0.019829      0.608013     -0.594424
Pb       7.70040     11.73749     12.55868         0.236140      0.137642     -0.429184
Pb      11.56486      4.02408      4.00472         0.293933     -0.502278      0.154353
Pb      11.64465      3.67883     16.38854         0.323421      0.091341      1.015118
Pb      11.96644      0.20584      4.19830        -1.087111     -0.628355     -0.229950
Pb      11.77117     15.57329      0.04862        -0.377447     -0.234528      0.072927
Pb      11.71408      3.65147      8.06882        -0.419419      0.536848      1.451473
Pb      11.74740     15.38187      8.24913        -0.650981      0.923731      0.468721
Pb      11.54863      3.94645     12.38830         0.189182     -0.021077     -0.525799
Pb      11.87346      0.02042     12.56019        -0.613582     -0.397853     -0.781566
Pb      11.66652      7.95537      4.11457         0.506051     -0.387610     -0.185354
Pb      11.67902      7.73329     16.55272         0.185478      0.047447      0.327782
Pb      11.72210      7.76393      8.17442         0.194565      0.424109      0.351114
Pb      11.91232      7.51044     12.40106        -0.781409      0.694895     -0.060388
Pb      11.50618     12.06463      4.12692         1.132095     -0.307208      0.364127
Pb      11.73686     11.76841      0.02187         0.218878      0.168399      0.357450
Pb      11.57587     11.50141      8.09604         0.177654      0.079327      0.357720
Pb      11.62356     11.54554     12.49203        -0.225683      0.303768     -0.261410
Ti       1.93761      1.94906      2.15492        -0.973006     -0.511160      0.337849
Ti       1.96147      1.94724     14.46765        -0.871478      0.274256     -0.009276
Ti       1.91154     13.65673      2.20565        -0.275218      0.141011      1.824163
Ti       1.88799     13.83662     14.62614        -0.007170     -1.538192     -0.595798
Ti      13.67722      2.01964      2.18540        -0.143699     -0.067382     -0.580188
Ti      13.71908      1.82697     14.60551         0.689176      0.635343      1.066021
Ti      13.68227     13.70576      2.27898        -1.230168     -0.485473     -0.943967
Ti      13.61744     13.61531     14.73104         0.257656     -0.516043     -0.101881
Ti       2.12486      1.87393      6.43996        -0.359357      0.154229     -0.272606
Ti       1.93500     13.63344      6.45763         1.361887     -0.008409      0.304901
Ti      13.74215      1.87795      6.45222        -0.309760      0.125718      0.455393
Ti      13.65550     13.60061      6.40278        -0.381169      0.169798     -0.255412
Ti       1.94721      2.01862     10.43756        -0.822966     -1.196890      0.686514
Ti       1.85312     13.60937     10.46948         0.782400      1.067626      0.139475
Ti      13.59149      1.94087     10.47550         0.461899     -0.136827     -1.610989
Ti      13.55525     13.53800     10.40839        -0.017376      1.314637     -0.179900
Ti       1.94663      5.89628      2.25803        -1.584955     -1.031295     -0.431064
Ti       1.81712      5.85703     14.67400         0.810390     -0.359195     -0.298727
Ti      13.61955      5.84921      2.25286        -0.240374     -0.106704      0.730164
Ti      13.58885      5.72934     14.68345         0.568693     -0.318377     -0.642276
Ti       1.90873      5.72112      6.39007         0.515030      0.861729     -0.356791
Ti      13.49721      5.79573      6.43748         1.393862      0.430572     -0.955927
Ti       1.96302      5.87159     10.46553        -0.038013      0.073179     -0.540134
Ti      13.71043      5.86320     10.41615        -0.675050     -1.053058     -0.805839
Ti       1.89412      9.72225      2.27358         0.941329      0.950888     -0.005305
Ti       1.83795      9.82360     14.65509         0.827459     -0.155907      0.087620
Ti      13.74228      9.82241      2.12978        -1.734898     -0.083917      1.900064
Ti      13.62869      9.67666     14.69544        -0.786639      0.868815      0.419207
Ti       2.01299      9.81733      6.33418        -0.320143     -0.176871     -0.929432
Ti      13.71346      9.77919      6.19055        -0.554234     -0.448312      0.317810
Ti       2.00138      9.77396     10.46517        -0.256567     -0.005988      0.206096
Ti      13.65254      9.75907     10.45376        -0.302939     -0.816346     -0.841145
Ti       5.76589      1.93690      2.27394         0.264502     -0.289576     -0.549883
Ti       5.83302      1.85771     14.71284        -0.506373      0.913966     -0.549203
Ti       5.72204     13.69771      2.23691         0.515786     -0.732955      0.657337
Ti       5.78326     13.67720     14.63892        -0.221870     -1.514856      0.818835
Ti       5.93615      1.82915      6.33024        -0.689321      0.675652      1.645205
Ti       5.86527     13.66213      6.44937        -1.159750     -1.004241      0.719445
Ti       5.84914      1.96929     10.48308        -0.056724     -0.613862     -0.603185
Ti       5.75614     13.59642     10.49605         0.597079      0.192038     -1.261779
Ti       5.66491      5.76203      2.08492         1.162458      0.673171      1.708723
Ti       5.65550      5.74028     14.87211         1.789370      0.705489     -2.244735
Ti       5.88710      5.85099      6.23106        -1.312110     -0.386211      0.539082
Ti       5.83617      5.85108     10.60741        -0.924599      0.901596      0.867792
Ti       5.78485      9.74449      2.16582         0.200092      0.142755      0.192179
Ti       5.78176      9.65515     14.68026         0.119036      0.580260      0.174920
Ti       5.93412      9.69092      6.39478        -0.221810      0.951625      0.390030
Ti       5.88410      9.70860     10.59420        -1.253947      0.310629      0.092493
Ti       9.65698      1.95734      2.22888         1.366375     -0.162176     -0.680383
Ti       9.70906      1.82024     14.68425         0.299574      0.580034      1.429454
Ti       9.59452     13.70252      2.22287         2.109232      0.222407     -1.180690
Ti       9.65205     13.58695     14.69623         1.181493      0.398955      0.315830
Ti       9.72946      1.97725      6.25320         0.124290     -0.739872      0.367742
Ti       9.64137     13.69811      6.50056        -0.029553      0.798128     -0.802859
Ti       9.70536      1.89579     10.46391         0.272508     -0.092624     -0.121761
Ti       9.73270     13.53645     10.51096        -0.529792      0.939012      0.083101
Ti       9.66318      5.90448      2.16289         1.200042     -0.666944      0.007779
Ti       9.70238      5.77872     14.77392        -1.086143     -0.141725     -0.869590
Ti       9.71373      5.94873      6.32257         0.330896     -1.438702      0.184028
Ti       9.63635      5.83419     10.41757         1.539459     -0.332059      0.079780
Ti       9.77423      9.76522      2.25458         0.009040     -0.024141     -1.013245
Ti       9.76194      9.78754     14.69833        -0.040955     -0.804046     -0.709458
Ti       9.65861      9.72789      6.27761         0.170177     -0.266975      1.881166
Ti       9.78575      9.59036     10.58126         0.839617      0.912082     -0.000007
O       1.96980      1.87898      0.37228        -0.049079      0.020971      0.179855
O       1.86718      1.90344     12.66131         0.241252      0.504739      1.341538
O       1.84017     13.85520      0.50318         0.121377     -0.133497     -1.794494
O       1.96141     13.60813     12.83109        -0.038844     -0.040300      0.897690
O      13.80334      2.07015      0.37534        -0.513234     -0.427131      0.823423
O      13.86843      1.68470     12.81120        -1.137465      0.413792     -0.459543
O      13.61961     13.70415      0.43716         0.420954     -0.238116      0.648098
O      13.70499     13.75549     12.89330        -0.389632     -0.355501      0.137326
O       1.93123      1.98594      4.64915         0.226971     -0.071323      0.281613
O       1.88605     13.65600      4.61795         0.308389      0.081396      0.353530
O      13.62729      1.78600      4.68376         0.474880      0.397669     -0.553432
O      13.48745     13.67838      4.60364         0.618251      0.121628     -0.172807
O       2.10264      1.93413      8.66249        -0.375333      0.054951     -0.756043
O       1.85247     13.71361      8.66598        -0.109434     -0.498978      0.794005
O      13.50829      1.88054      8.63745         0.332144      0.298070      0.503681
O      13.68650     13.48137      8.59746        -0.337042      0.174081      0.643219
O       1.83072      5.85449      0.45285         0.315050      0.651809      0.352621
O       1.86973      5.80705     12.89220        -0.438318      0.534145      0.299147
O      13.65177      5.72389      0.51132         0.127685      0.179688     -1.056287
O      13.79826      5.73411     12.89177        -0.672707      0.706650      0.095371
O       1.87331      5.67930      4.58065         0.367540      0.632418      0.127127
O      13.59693      5.77057      4.65158        -0.115316      0.196417      0.021182
O       2.12510      5.92242      8.66831        -0.502206     -0.340979      0.236288
O      13.47696      5.78519      8.65768         0.747498      0.385308      0.303759
O       2.02286      9.71195      0.46583        -0.488172     -0.058602      0.240728
O       1.83859      9.67370     12.86548         0.117759      0.376479     -0.182111
O      13.70566      9.77341      0.38551        -0.008721     -0.372537     -1.040871
O      13.39485      9.97896     12.92484         1.095121     -0.946188      0.072330
O       1.94160      9.84600      4.50609         0.210009      0.179116      0.853909
O      13.59637      9.85620      4.43680         0.198740     -0.588207      0.547496
O       1.95737      9.71951      8.66603        -0.042043      0.445704      0.071286
O      13.62957      9.73511      8.66958        -0.027224      0.274802      0.188911
O       5.78496      2.10553      0.44777        -0.295043     -0.923880      0.908708
O       5.73263      1.66925     12.90784         0.729100      0.730783      0.538386
O       5.76081     13.74359      0.48089         0.012474     -0.367416     -0.139225
O       5.79342     13.65256     12.86936         0.024740      0.274535      0.196837
O       5.81585      1.97534      4.59769         0.142813     -0.155569     -1.453564
O       5.71965     13.77297      4.63678         0.155881     -0.296706     -0.495650
O       5.75118      1.89203      8.69765         0.483754      0.509815      0.658296
O       5.95387     13.61196      8.60144        -0.107030     -0.365291      2.065234
O       5.66403      5.82721      0.34477         0.036790      0.142757     -0.187079
O       5.84235      5.74191     12.94895        -0.122320     -0.089482      0.753734
O       5.78735      5.83270      4.43443         0.253422      0.111784      0.555221
O       5.77134      6.00074      8.87022        -0.017742     -0.478353     -1.008662
O       5.62944      9.75585      0.36666         0.441159      0.298580      0.645938
O       5.76096      9.77182     12.87831         0.107490     -0.378652     -0.442486
O       5.98873      9.64743      4.64933        -0.199683      0.181737     -1.189412
O       5.88872      9.67865      8.74860         0.188704     -0.048390      0.793369
O       9.79998      1.82648      0.43714        -0.312032      0.610130     -0.292045
O       9.74377      1.80961     12.96058        -0.152654     -0.057138     -1.394337
O       9.70214     13.50656      0.37365        -0.327564      0.370298      1.135602
O       9.63395     13.55930     12.93159         0.320859      0.414924     -0.120136
O       9.60377      2.04575      4.47137         0.066255     -0.437785     -0.137155
O       9.59918     13.70707      4.69536         0.301999     -0.483219     -0.676575
O       9.69008      1.98194      8.71840        -0.001221     -0.041487      0.116124
O       9.72824     13.74797      8.71919        -0.172401     -0.686276     -0.559130
O       9.74824      5.92612      0.36367        -0.265433      0.159805     -0.166212
O       9.70929      5.77840     12.96548         0.045904     -0.175563     -0.183183
O       9.67531      5.82437      4.53088        -0.236898      0.172431     -0.221468
O       9.75069      5.94942      8.65842        -0.635115     -0.339517      0.438719
O       9.49748      9.72371      0.38101         0.930805      0.002074      0.577875
O       9.82045      9.91843     12.85442        -0.155801     -0.557825      0.881303
O       9.51417      9.66925      4.55894         0.198468     -0.165636     -1.412524
O       9.83311      9.66607      8.79145        -0.498377     -0.217434      0.483624
O       3.79447      1.82637      2.56145         1.572171      0.254340     -0.051012
O       3.82575      1.78623     14.88524         0.355016      0.224584      0.268900
O       3.83075     13.88151      2.54435         0.026959     -0.719724     -0.231178
O       3.83955     13.77250     15.14732         0.084060      0.237626     -0.802436
O      15.58235      2.07759      2.56059        -0.042024     -0.108472     -0.063529
O      15.60382      2.02192     14.86797         0.309346      0.124462      0.180359
O      15.52429     13.60701      2.59057         0.389159      0.101655      0.148587
O      15.59222     13.47914     14.98794         0.323336      0.344114      0.165681
O       3.98694      1.94486      6.72717        -0.310365      0.432074     -0.463609
O       3.92997     13.54732      6.89139        -0.168007      0.453549     -0.882882
O       0.04220      1.85379      6.75746        -0.381197      0.202673     -0.265598
O       0.02549     13.66173      6.68438        -0.605302     -0.318284     -0.283069
O       3.85851      1.88922     10.81604         0.600783      0.190567     -0.192756
O       3.88237     13.74320     10.85288        -0.190375     -0.418525     -0.454219
O      15.58436      2.05579     10.64270        -0.048258     -0.409708     -0.080911
O      15.57483     13.36677     10.75547        -0.356397      0.411200     -0.102736
O       3.82184      5.93229      2.60649         0.336076      0.284156     -0.503381
O       3.82650      6.03641     14.94234        -0.885796     -0.185338      0.220832
O      15.56409      5.78366      2.62375         0.302773      0.072122     -0.207121
O      15.52974      5.77386     15.06897         0.343706      0.361656     -0.188891
O       3.86124      5.76186      6.69537         0.619104      0.308656     -0.676580
O      15.56638      5.84528      6.79836         0.761823      0.041237     -0.443368
O       3.83304      5.85808     11.01339         0.207938     -0.116811     -0.608052
O       0.02751      5.84022     10.65734        -0.292116     -0.004016      0.307404
O       3.85064      9.72645      2.58685         0.098318      0.013743      0.168225
O       3.87284      9.75128     14.93171        -0.720259     -0.473103      0.128793
O      15.57394      9.86333      2.54096         0.629986     -0.413966     -0.065531
O      15.51086      9.79174     15.04905         0.513673      0.194350     -0.446594
O       3.99738      9.79203      6.64689        -0.778581     -0.250509     -0.177893
O       0.03151      9.89262      6.47265         0.144162     -0.318144      0.412118
O       3.86431      9.59911     10.72877         0.042093      0.447777      0.391001
O      15.55120      9.80017     10.75254         0.363339      0.186502      0.413742
O       7.75413      1.96109      2.40689        -1.277694      0.245651      0.383894
O       7.79500      1.96731     15.04742        -0.560565     -0.115466     -0.335215
O       7.79143     13.48983      2.47004        -0.874287      0.424385      0.272528
O       7.76990     13.56545     15.01584        -0.759118      0.494906     -0.268541
O       7.79823      1.90139      6.66943        -0.243151      0.577183     -0.030179
O       7.74580     13.59893      6.67586         0.490746      0.222844      0.314071
O       7.67628      1.97813     10.82124         0.974485     -0.139342      0.202133
O       7.83150     13.49702     10.83791        -0.877642      0.418112      0.102188
O       7.80694      5.61737      2.43735        -1.700801      1.297588     -0.425955
O       7.69006      5.71524     15.02934         1.121589     -0.013288      0.388282
O       7.72798      5.85363      6.65830         0.604852      0.215255     -0.281697
O       7.71983      5.82088     10.84036         0.780814      0.104584     -0.213541
O       7.75370      9.86702      2.40560        -0.543064     -0.052013      0.314986
O       7.70622      9.87784     14.92518         0.929828     -0.383455     -0.103376
O       7.76531      9.56566      6.86191         0.626035      0.115343     -0.252263
O       7.77427      9.72586     10.98452         0.103478      0.028746     -0.656619
O      11.65393      2.03546      2.44746         0.936531     -0.518087      0.469866
O      11.78581      1.75357     14.88855        -0.582389      0.045103      0.031618
O      11.67400     13.70627      2.41607        -0.166137     -0.166888      0.714093
O      11.70905     13.65606     15.05633        -0.546442      0.251847     -0.340689
O      11.59409      1.85463      6.59189         0.718177     -0.117096     -0.188726
O      11.63453     13.70204      6.66365         0.163998     -0.940980      0.044919
O      11.74974      1.99773     10.79979        -1.233451     -0.566802      0.609789
O      11.67991     13.76082     10.78239         0.654371     -0.070329      0.080171
O      11.59991      5.81575      2.45855         0.427489      0.498042      0.320843
O      11.72039      5.74294     15.01432        -0.358896      0.815729     -0.182086
O      11.64772      5.83631      6.70698        -0.264160      0.367506     -0.544428
O      11.74930      5.79671     10.75071        -0.693526      0.448653      0.839266
O      11.68561      9.53156      2.46304        -1.035533      0.359405     -0.440157
O      11.67470      9.62272     15.15512        -0.755202      0.597224     -0.552530
O      11.62605      9.63920      6.56041        -0.136335      0.176159     -0.124971
O      11.73047      9.63746     10.82866        -0.850878      0.017585      0.103161
O       2.04334      3.92948      2.35301        -0.017461     -0.063986      0.686333
O       2.05199      3.91456     15.03042        -0.584860      0.198310     -0.682378
O       1.76203      0.08424      2.56668        -0.097284     -0.795455      0.158375
O       1.67573      0.05060     14.75922         0.475014     -0.185622      0.425935
O      13.61563      3.88400      2.68299        -0.024831      0.089786     -0.341084
O      13.54593      3.77394     14.82218         0.250710      0.681293      0.221796
O      13.69486      0.01721      2.55407        -0.028336      0.566183     -0.168023
O      13.72623     15.51059     15.11419         0.032413      0.886713     -0.570712
O       1.88550      3.89745      6.64015         0.301552     -0.505494      0.448636
O       2.10449     15.57231      6.73001        -0.450234      0.329555     -0.438089
O      13.62848      3.85054      6.69381         0.284117     -0.300618     -0.249576
O      13.59554     15.53756      6.78259         0.507541      0.198498     -0.476119
O       1.90947      3.88799     10.63413         0.475099      0.812864      0.379579
O       1.77113      0.01225     10.72992         0.373560     -0.605830     -0.249949
O      13.66865      3.85066     10.81791        -0.130178      0.607845      0.017502
O      13.78773     15.56718     10.61684        -0.352682     -0.427292      0.422949
O       1.75910      7.82426      2.64457         0.647229     -0.401577     -0.520052
O       1.76671      7.91543     15.03441         0.222192     -1.426468     -0.154270
O      13.67661      7.78413      2.57814         0.136987     -0.455643     -0.148675
O      13.60783      7.77383     14.96142         0.229987     -0.482869     -0.142686
O       2.09043      7.90790      6.67425        -0.506270     -0.619104     -0.676193
O      13.71193      7.84306      6.56141        -0.258539     -0.187015      0.084272
O       1.90675      7.78046     10.69786        -0.285394      0.316016      0.887045
O      13.68102      7.78780     10.83039         0.159726     -0.317066      0.214200
O       1.83273     11.75950      2.41242         0.565002     -0.194528      0.274264
O       2.03430     11.70371     14.97682        -0.333482     -0.083505      0.130860
O      13.45738     11.61301      2.42087         0.355363      1.497609      0.082085
O      13.51015     11.69329     15.02477         0.346943     -0.123546      0.031217
O       2.13825     11.71324      6.72437        -1.024384     -0.439213     -0.264947
O      13.59818     11.68039      6.52962        -0.013289      0.115156      0.543910
O       2.10638     11.71816     10.74081        -0.314215     -0.971080      0.111682
O      13.55409     11.68858     10.65405        -0.131497     -0.351592      0.731059
O       5.63003      3.93763      2.43326         0.216843     -0.688132      0.170096
O       5.69412      3.86795     15.14592        -0.049207     -0.642075     -0.741214
O       5.90079     15.56423      2.55032        -0.067905      1.042753     -0.041570
O       5.88351      0.04290     15.17165        -0.028043     -0.854382     -0.559589
O       5.93201      3.99008      6.75230        -0.500785     -0.565956     -0.362239
O       5.84032     15.56707      6.73287         0.127829      0.917223     -0.429412
O       5.77165      3.89772     10.89043         0.045008     -0.270761     -0.605494
O       5.80666     15.49328     10.60113         0.438852      1.391422      0.856954
O       5.79586      7.85646      2.49016         0.227446     -0.934819     -0.133840
O       5.92745      7.80159     15.05677        -0.372108     -0.081917     -0.206554
O       5.76422      7.75246      6.60182         0.147094     -0.601581      0.191640
O       5.71485      7.77587     10.93835         0.911956      0.350851      0.132823
O       5.72961     11.71293      2.72451        -0.046500      0.137588     -0.785226
O       5.71464     11.73469     14.90694        -0.173849      0.860196      0.213139
O       5.92809     11.64962      6.61773         0.118779     -0.391229      0.112401
O       5.74345     11.69549     10.80100         0.183113     -1.043028      0.175359
O       9.68141      3.89528      2.40392         0.054917      0.276233      0.372937
O       9.85835      3.83650     14.89393        -0.369227     -0.406688      0.364927
O       9.73436     15.59341      2.51856        -0.816309     -0.403723      0.045020
O       9.73291     15.56857     15.13700        -0.292287     -0.656833     -0.739387
O       9.83368      3.91814      6.53083        -1.127305     -0.174180      0.427129
O       9.63115      0.01705      6.67896         0.010272     -0.305511     -0.108115
O       9.76081      3.92336     10.75811        -0.413797      0.063653      0.491398
O       9.61332      0.03079     10.76941         0.054051      0.171715      0.456084
O       9.58683      7.82388      2.56610        -0.037233     -0.480241     -0.362491
O       9.62371      7.77327     14.86979         0.133323      0.351408      0.582380
O       9.61744      7.68458      6.71470         0.427773      1.928997     -0.283728
O       9.63554      7.70792     10.92592         0.244002      0.494522     -0.159113
O       9.88048     11.65194      2.59733        -0.960224      0.160473     -0.520304
O       9.72869     11.68546     14.95759         0.343745     -0.444262      0.314467
O       9.55438     11.55375      6.60551         0.594474      0.794867      0.448745
O       9.79073     11.71598     10.75845         0.240458     -1.262323     -0.018265
