  # total energy = -7880.40815490 
CRSYTAL
PRIMVEC
    15.6080000000000005    0.0000000000000000    0.0000000000000000
     0.0000000000000000   15.6080000000000005    0.0000000000000000
     0.0000000000000000    0.0000000000000000   16.6239999999999988
PRESSURE
-0.277114 -0.447725 -0.10399 -0.004748 -0.148917 -0.006735
PRIMCOORD
320 1
Pb       3.95876      4.08270      4.21901        -0.033970     -0.813991     -0.336781
Pb       3.96601      4.02716     16.49425         0.032536     -0.696518      0.879909
Pb       3.89468      0.07121      4.00375        -0.059069      0.062008      0.310600
Pb       3.86024      0.03053     16.49897        -0.098183     -0.213051      0.287618
Pb       0.18064      3.84827      4.21654        -0.354869      0.066321     -0.477043
Pb      15.57733      3.80021      0.01563         0.369005      0.556694      0.191547
Pb      15.38793      0.04324      4.12807         0.551491     -0.633613     -0.630111
Pb      15.46810      0.00220     16.56050         0.610507     -0.197768      0.567590
Pb       3.79428      3.82588      8.22892         0.172866      0.358940      0.513627
Pb       3.86829     15.48893      8.05225        -0.058682      0.313141      1.047519
Pb      15.54386      3.85569      8.40028        -0.479812      0.581240     -0.042911
Pb      15.56169     15.54083      8.24313         0.168833     -0.186430      0.226398
Pb       3.78565      3.85041     12.53789         0.120256     -0.388030     -0.353369
Pb       3.93671     15.54710     12.50123        -0.054235      0.066507     -0.433055
Pb       0.00444      4.01792     12.61912         0.032088     -0.327534     -0.150406
Pb       0.14350     15.55681     12.45293        -0.223565      0.028025      0.367907
Pb       3.90295      7.86553      4.09895         0.031253     -0.085350     -0.160241
Pb       4.00734      7.79086     16.60622        -0.115193     -0.370834      0.037919
Pb       0.09994      7.77812      4.22770        -0.170792      0.688179     -0.169181
Pb      15.51305      7.75875     16.60056         0.109427      0.181518     -0.055132
Pb       3.76260      7.72977      8.28575         0.697688     -0.150272      0.134801
Pb      15.37363      7.66971      8.45533         0.219757     -0.334072     -0.348825
Pb       4.01307      7.78185     12.31815        -0.518492      0.141391      0.314504
Pb      15.48914      7.80383     12.52983        -0.051544     -0.056012     -0.201884
Pb       3.80457     11.70129      4.01049        -0.050754     -0.387963      0.837881
Pb       3.95050     11.63239     16.61562        -0.419588      0.504373     -0.465153
Pb      15.56874     11.63525      4.10848        -0.236158      0.250827      0.274253
Pb      15.48972     11.72642     16.50531         0.464195     -0.097784      0.229146
Pb       3.87279     11.82062      8.20566        -0.314891     -0.201426      0.379832
Pb       0.16561     11.65404      8.19388        -0.525191      0.288100      0.419228
Pb       4.03629     11.48258     12.25479        -0.282403      0.776784      0.667764
Pb       0.19449     11.68903     12.44102        -0.518175      0.304865      0.024314
Pb       7.85279      3.73550      4.13694        -0.107430      0.137980      0.266172
Pb       8.01873      4.04027     16.60581        -1.575220     -0.156629      0.652405
Pb       7.85166     15.45852      4.12548        -0.673216      0.322920      0.362698
Pb       7.82204      0.13179     16.54529        -0.356343     -0.224380     -0.174119
Pb       7.57787      3.80005      8.45076         0.722065      0.267246     -0.233774
Pb       7.72068      0.07358      8.13488         0.456277     -0.519873      0.475367
Pb       7.80379      3.56845     12.58843        -0.061962      0.409880     -0.958965
Pb       7.68717     15.37761     12.40481         0.386993      0.817816      0.431082
Pb       7.95395      7.85971      4.25332        -0.826342     -0.494639     -0.261555
Pb       7.64120      7.77413      0.02380         0.033010     -0.244364     -0.309060
Pb       7.71310      7.78552      8.11969         0.201942     -0.146676      0.949042
Pb       7.76465      7.68780     12.38150        -0.237541      0.455340     -0.057755
Pb       7.86929     11.53649      4.17290        -0.192081      0.517096      0.336827
Pb       7.75351     11.90433     16.57381        -0.054109     -0.310773     -0.592475
Pb       7.77860     11.67240      8.13500         0.251638      0.032487      0.488076
Pb       7.84793     11.61910     12.31727        -0.162978     -0.317112      0.648997
Pb      11.74883      3.63054      4.18815        -0.422580      0.446389     -0.412288
Pb      11.67833      4.09593      0.29975         0.037192      0.140145     -0.139228
Pb      11.39773     15.36389      4.08858         1.469257      0.488075      0.660834
Pb      11.74423     15.56892     16.55002        -0.489216      0.379668     -0.007921
Pb      11.67281      4.12353      8.39784         0.373734     -0.920559      0.589940
Pb      11.83572      0.28612      8.44615        -0.392147     -0.062894     -0.211401
Pb      11.81171      3.80306     12.52373        -0.591888     -0.236480     -0.346950
Pb      11.57833     15.56095     12.40568        -0.270867      0.602772      0.214357
Pb      11.56568      7.76386      4.22681         0.317865     -0.080045     -0.241911
Pb      11.70474      7.88287      0.04617         0.258626     -0.465794     -0.424953
Pb      11.62834      7.79114      8.39896        -0.046291     -0.063301     -0.278226
Pb      11.51874      8.02015     12.49320         0.645632     -0.720977      0.051765
Pb      11.85431     11.32726      4.13502        -0.302637      1.411103      0.574325
Pb      11.60951     11.62741      0.00472         0.311251      0.477392     -0.710755
Pb      11.83059     11.90228      8.38810        -0.261874     -0.301580     -0.325205
Pb      11.86056     11.81162     12.50913        -0.183262      0.170092     -0.246072
Ti       1.95246      1.96744      2.23262         0.318390     -0.770982     -0.525808
Ti       1.82752      1.90246     14.78002         1.070670      0.651167      0.198387
Ti       1.92233     13.63817      2.19449        -0.988743      0.585031     -0.474655
Ti       1.92155     13.62794     14.70378         0.472211     -0.536976      0.437804
Ti      13.64435      1.96568      2.17336        -0.413363     -0.225773      0.282976
Ti      13.55315      2.04853     14.79610        -0.466217     -0.972132     -0.632253
Ti      13.59282     13.65224      2.12648         0.658955     -0.555723      0.864851
Ti      13.61266     13.71920     14.67652         0.215062     -0.435412     -0.854376
Ti       1.82531      2.01492      6.38070         0.983392     -0.496010     -1.565980
Ti       1.86812     13.75785      6.26550         0.299341     -1.210162      0.279755
Ti      13.65439      1.94536      6.24682        -0.994994      0.075115      0.469556
Ti      13.62017     13.69100      6.32980         0.280493     -1.269943     -0.332396
Ti       1.95879      1.96804     10.50509         0.141735     -0.213825      0.450526
Ti       1.99642     13.67996     10.55245        -0.237131     -0.955810     -0.861643
Ti      13.76549      1.87998     10.69121        -0.505433      0.711650     -0.945967
Ti      13.64499     13.73424     10.51504         1.075969     -1.506461      1.162138
Ti       1.88961      5.82618      2.18205         0.359468      0.474721     -0.867296
Ti       1.91763      5.80323     14.74454        -0.115950      0.728145     -0.044332
Ti      13.66663      5.93756      2.27734        -0.744636     -0.433477     -0.802637
Ti      13.56973      5.83333     14.82167         0.493115      0.751999     -0.537768
Ti       1.95892      5.86686      6.45614        -0.733854     -0.047404     -0.326722
Ti      13.64070      5.85151      6.26328         0.656040      0.144773      0.788259
Ti       1.91047      5.86829     10.63966        -0.856287     -0.347301      0.252631
Ti      13.55937      5.75519     10.72682         0.636543      0.874674     -1.407953
Ti       1.90590      9.73159      2.17215        -0.831679      0.044862     -0.286938
Ti       1.93109      9.70805     14.75813        -0.498530      0.316477     -0.809988
Ti      13.58868      9.75622      2.08316         1.210743      0.036122      0.730208
Ti      13.64408      9.84070     14.54659         0.146044     -0.609883      1.711242
Ti       1.96551      9.66405      6.48420        -1.639322      0.999171     -0.636924
Ti      13.60170      9.76640      6.54102         0.582690     -0.079816     -0.934089
Ti       1.78660      9.71790     10.55508         0.005605      0.447355     -0.252007
Ti      13.52583      9.70905     10.42335         1.174960      0.568928      1.074820
Ti       5.84845      1.93862      2.21640        -0.042083      0.452915     -1.075302
Ti       5.80068      1.93231     14.63911        -0.770169      0.236491     -0.102241
Ti       5.83778     13.62061      2.19443        -0.143287      0.275850     -0.596133
Ti       5.83121     13.64043     14.62001        -0.510079     -0.412444      0.310319
Ti       5.70909      1.98544      6.40476         0.905408     -0.765820     -1.815043
Ti       5.87235     13.60515      6.38044         0.325779      0.449412     -1.480410
Ti       5.76241      1.93016     10.46113        -0.194900     -0.214586      0.918908
Ti       5.92492     13.56936     10.49569        -1.570690     -0.028453     -0.037007
Ti       5.83259      5.80241      2.31393         0.636961      0.734491     -0.787888
Ti       5.91404      5.78269     14.53769        -0.476161      0.349991      2.288581
Ti       5.95719      5.78449      6.33825        -0.790281      1.472238      0.797208
Ti       5.82158      5.78726     10.42879         0.137057      0.005856     -0.190740
Ti       5.90493      9.72943      2.27921        -1.223694     -0.612280     -0.247924
Ti       5.87189      9.74351     14.70292         0.007674     -0.293261     -0.862879
Ti       5.71332      9.74381      6.38516         1.089388     -0.781247     -0.938902
Ti       5.81231      9.63628     10.32952         0.800244      0.729035      0.229270
Ti       9.73280      1.93008      2.17653         0.252536      0.175133      0.985366
Ti       9.65252      2.05028     14.66051         1.774534     -1.526711     -0.900466
Ti       9.71940     13.65694      2.09445         0.174995     -0.556292      0.431346
Ti       9.72737     13.69536     14.62085        -0.304780     -0.260309     -0.734743
Ti       9.74775      1.93622      6.45105         0.143477     -0.519269     -0.581982
Ti       9.82476     13.62367      6.37335        -0.266526     -0.287454      0.641390
Ti       9.65550      1.91486     10.50757         0.646424      0.257071      0.241026
Ti       9.71638     13.61630     10.50109         0.264189      0.215805     -0.199521
Ti       9.70606      5.80914      2.28438         0.422514      0.266866      0.332642
Ti       9.77693      5.87505     14.56430        -0.360792      0.623581      0.900622
Ti       9.83073      5.70492      6.42132        -0.574206      0.444230     -0.756205
Ti       9.69334      5.84678     10.54190        -0.081703     -1.252501     -0.817657
Ti       9.67541      9.75065      2.14923         0.493048     -0.301789      1.936012
Ti       9.69701      9.73184     14.63599        -0.397330      0.443834     -0.023482
Ti       9.72564      9.67763      6.47145         0.603336      0.672514     -0.195737
Ti       9.66080      9.67070     10.45689        -0.365469      0.351814     -0.055811
O       1.93171      1.92027      0.43905        -0.033862     -0.064857      0.427473
O       1.83939      1.84317     13.03719         0.153346      0.394254     -1.292301
O       2.06993     13.69759      0.39687        -0.157074     -0.404677      0.412379
O       1.79153     13.62892     12.91311         0.362091      0.326030     -0.273641
O      13.53628      1.74637      0.36712         0.387065      0.891359      0.731535
O      13.81902      2.05193     13.02189        -0.763839     -0.025439     -0.462690
O      13.51974     13.61506      0.34885        -0.030399      0.106432     -0.469832
O      13.64681     13.62606     12.86122        -0.409142      0.237245      0.458744
O       1.94695      2.04020      4.51884        -0.458045     -0.041771      1.201020
O       1.73791     13.63512      4.53811         0.423698      0.108800     -0.305234
O      13.66567      1.79679      4.46123        -0.227101      0.764682      0.494938
O      13.64299     13.46437      4.57909         0.186648      0.670841     -0.377237
O       1.98102      2.03668      8.72247        -0.223374     -0.153387     -0.304720
O       1.89851     13.71085      8.74775         0.615868      0.021020      0.062033
O      13.66437      1.94057      8.87023         0.214573     -0.209289      0.105508
O      13.48361     13.79550      8.78223         0.119255      0.148773     -1.093136
O       1.94021      5.92522      0.41360        -0.441896     -0.352341      0.301267
O       1.93465      5.84108     12.92917         0.210106     -0.301483      0.465095
O      13.63868      5.96421      0.40695        -0.066782     -0.636769      0.069964
O      13.62021      5.77056     12.99239        -0.462546     -0.103723      0.276452
O       1.99361      5.79666      4.67535        -0.365449      0.142921     -0.917575
O      13.59986      5.82800      4.49709        -0.106168      0.300132     -0.392047
O       1.66751      5.75964      8.88152         0.706543      0.222482     -0.561874
O      13.72995      5.77245      8.87150        -0.268541     -0.126762      0.471872
O       1.65829      9.84644      0.40139         0.808718     -0.199947      0.519563
O       1.94230      9.77678     12.93581         0.073482     -0.135752     -0.002579
O      13.54650      9.91454      0.32359         0.016763     -0.305564     -0.131834
O      13.57155      9.74027     12.81197        -0.264510      0.155529     -0.920003
O       2.04593      9.65298      4.72458        -0.236825     -0.145217     -0.857309
O      13.50176      9.77566      4.71860        -0.377354      0.077823     -0.306776
O       1.68799      9.59825      8.77451         0.565834      0.100016      0.039934
O      13.76666      9.63977      8.65405        -0.565045      0.192917      0.395171
O       5.97404      2.02464      0.38560        -0.273087     -0.387166      0.922344
O       5.75611      1.98964     12.80635         0.510636      0.352002      0.884984
O       5.77518     13.57906      0.38299        -0.013631     -0.200688      0.338069
O       5.89916     13.53392     12.85903        -0.203137      0.360024     -0.797630
O       5.76385      1.89325      4.59306         0.177082      0.361966      0.792654
O       6.11831     13.74801      4.61487        -0.907975     -0.594187     -0.305483
O       5.54547      2.01862      8.67316         0.762509     -0.262349     -0.251718
O       5.78879     13.56608      8.73414        -0.026802      0.275322     -0.715551
O       5.94222      5.86386      0.49337         0.159311     -0.154561      0.622041
O       5.78287      5.79567     12.82622        -0.208947      0.243333     -1.678841
O       5.75183      5.86800      4.59140        -0.059913     -0.234244     -0.414766
O       5.82909      5.86498      8.65685        -0.126165     -0.141435     -0.364369
O       5.83841      9.59999      0.48490         0.288515      0.419574     -0.538574
O       5.89835      9.62949     12.91453        -0.558185     -0.148704     -0.054241
O       5.90177      9.69361      4.56519        -0.747586      0.122374     -0.205487
O       5.89597      9.79555      8.58765        -0.139564     -0.528657     -1.032817
O       9.66868      1.98388      0.43418        -0.164574     -0.246428     -1.398143
O       9.64184      2.02441     12.82010        -0.091991      0.301368      0.777463
O       9.79906     13.80770      0.34269        -0.674714     -0.675359     -0.318189
O       9.65634     13.61150     12.80063         0.077760      0.018104      0.705640
O       9.83369      1.99500      4.60973        -0.153290     -0.153593      0.672642
O       9.57650     13.65399      4.59182         0.279938      0.245242     -0.345384
O       9.81651      1.88590      8.73637        -0.248020     -0.324000     -0.466044
O       9.79952     13.58395      8.73645        -0.048708      0.196403     -0.232152
O       9.66074      5.75984      0.46090        -0.248515      0.279006      0.090870
O       9.73750      5.81487     12.82799         0.109367     -0.242375     -0.925005
O       9.94883      5.78321      4.54337        -0.155177     -0.143613      1.692298
O       9.88787      5.85906      8.71952        -0.338753     -0.180123      0.378394
O       9.73462      9.63977      0.46155        -0.043024      0.328728     -2.134900
O       9.64410      9.77269     12.86856         0.336960     -0.511952     -0.662697
O       9.76597      9.68809      4.62729         0.321463     -0.029587     -0.230675
O       9.66569      9.54801      8.70608        -0.151503      0.404537     -0.485859
O       3.92434      2.10071      2.59312        -0.371347     -0.613088     -0.450365
O       3.87867      2.02342     14.89144         0.563580     -0.298271      0.410222
O       3.83706     13.54969      2.68870         1.036485      0.361130     -0.644533
O       3.87103     13.66072     14.99490         0.135166      0.284994     -0.287296
O      15.58374      1.95893      2.57205        -0.205433     -0.452907     -0.343951
O      15.54791      1.88389     15.06700        -0.624302      0.671677      0.468088
O      15.56551     13.56687      2.40012        -0.174637      0.219667     -0.023125
O      15.59607     13.75691     15.04230        -0.573099      0.001457     -0.125197
O       3.82398      1.94565      6.61475        -0.421070      0.407489      0.149974
O       3.81848     13.59366      6.50774         1.070627      0.355302      0.434917
O      15.55944      2.00075      6.59251        -0.309361     -0.535523      0.202343
O       0.05694     13.59212      6.68775        -1.146127      0.533000      0.326246
O       3.85800      1.93640     10.93268        -0.462983      0.028710     -0.012136
O       3.91797     13.63287     10.89940         0.319935     -0.149072     -0.146138
O       0.10884      1.89649     10.85814        -1.586346     -0.265020     -0.087318
O      15.58983     13.56024     10.72733        -0.574897      0.417650      0.318950
O       3.85973      5.94087      2.41195         0.208170     -0.629939      0.726402
O       3.88355      5.86347     15.08227        -0.072027      0.140013     -0.738417
O      15.55584      5.91293      2.48737         0.580962     -0.218484      0.383292
O      15.56487      5.69653     14.96920        -0.341564      0.210976      0.354250
O       3.85856      5.84668      6.71760        -0.212119      0.036388      0.263372
O      15.57888      5.99528      6.70706        -0.719019     -0.645514     -0.425036
O       3.82164      5.89846     10.75682        -0.339220     -0.188883      0.215448
O      15.51729      5.78825     11.01160         0.333959      0.072102      0.211372
O       3.82294      9.68499      2.36632         0.517140      0.188240      0.551810
O       3.83211      9.76184     15.09431         0.270279     -0.579364     -0.019483
O      15.53522      9.74712      2.69314         0.012646     -0.509496     -0.570515
O      15.55516      9.89602     14.97184        -0.229703     -0.603603     -0.387157
O       3.84116      9.71414      6.71846         0.773827     -0.328122      0.465735
O      15.50749      9.77065      6.53152         0.755640      0.010640      0.580999
O       3.95079      9.84852     10.66622        -1.333521     -1.341200      0.167547
O      15.48304      9.86618     10.92075         0.779275     -0.573448     -0.311712
O       7.84435      1.86299      2.61579        -0.545204      0.363952     -0.317872
O       7.81178      1.92836     14.89439        -0.971283      0.374786      0.122396
O       7.68884     13.74241      2.32633         1.272482     -0.045762      0.237324
O       7.71300     13.66356     14.88008         0.523135     -0.166568      0.957944
O       7.71739      1.96384      6.73805         0.047116      0.187386      0.055723
O       7.74124     13.63533      6.71005         0.358940      0.083583      0.449054
O       7.68054      1.92557     10.73633        -0.189169      0.386702     -0.087154
O       7.78355     13.57072     10.77956        -0.340560      0.070528      0.057486
O       7.84974      5.75549      2.84196         0.059458      0.164018     -1.038764
O       7.75256      5.93739     14.84408         0.816271     -0.598132      0.264866
O       7.82766      5.77804      6.76784         0.224794     -0.169375     -0.770038
O       7.72411      5.93916     10.67264         0.423170     -0.215215      0.351845
O       7.72039      9.66322      2.56509         2.216745      0.147141     -0.042514
O       7.75607      9.72488     14.92278         0.206967      0.090265      0.770402
O       7.81033      9.76846      6.49947        -0.025418     -0.135636      0.753549
O       7.73784      9.45025     10.68052         0.697079      0.617877      0.525602
O      11.66973      1.89498      2.45886         0.595936      0.043438      0.179377
O      11.61391      1.88102     14.87524         0.035108      0.376374      0.172061
O      11.63196     13.57371      2.45242        -0.308301      0.262062      0.007165
O      11.63584     13.56697     14.98101         0.369806      0.287503     -0.390383
O      11.73346      1.86855      6.62021         0.299917      0.255257      0.091023
O      11.73895     13.61058      6.53622        -1.205940      0.446628      0.325451
O      11.64612      1.82886     10.86293         0.279977      0.025069      0.346322
O      11.56756     13.73424     10.92861         0.955379     -0.266994     -0.304905
O      11.66523      5.80141      2.30934         0.304792      0.003950      0.543855
O      11.64113      5.98402     15.08523         0.039874     -0.719451     -0.114071
O      11.72458      5.78803      6.77760        -0.050946      0.060837     -0.549953
O      11.65706      5.68917     10.78577        -0.012950      0.085453      0.510257
O      11.70679      9.70011      2.48664        -0.869262      0.229194     -0.242172
O      11.67461      9.84100     14.85102        -0.552742      0.002739      0.471030
O      11.59058      9.80725      6.88334         0.630280     -0.121240     -0.311504
O      11.66565      9.50853     10.65563        -0.311904      0.817933      0.218325
O       1.83762      3.85335      2.42617         0.055062      1.368651      0.389954
O       1.92843      3.88140     15.16051        -0.142247      0.484247     -0.551564
O       1.97742     15.53520      2.50452         0.072268      0.901060      0.131630
O       1.96033      0.07703     15.02938        -0.022257     -1.569026      0.186146
O      13.68386      3.87917      2.43841        -0.448600     -0.677711     -0.216047
O      13.45402      3.92307     15.19012         0.404262     -0.186523     -0.224633
O      13.64508     15.52036      2.50417        -0.064562      0.313468     -0.133637
O      13.55128      0.02504     15.03298         0.185022     -0.662409     -0.381791
O       1.75733      3.90025      6.66029         0.579379      0.174541      0.309134
O       1.91727      0.05589      6.69655        -0.316154     -0.125550     -0.386991
O      13.63318      3.90323      6.61343         0.234964     -0.327634     -0.263739
O      13.69422     15.57312      6.61752         0.369088      0.993667      0.202004
O       1.80523      3.82882     10.99305         0.926006      0.567235     -0.306745
O       1.89561     15.50711     10.89842         0.475310      1.476227     -0.079819
O      13.59497      3.80939     10.96497         0.342091      0.155907      0.093681
O      13.65474      0.00239     10.84672        -0.029290     -0.066080      0.468732
O       1.86764      7.79791      2.54321         0.033578     -0.014251      0.208338
O       1.72384      7.77452     15.06843         0.666754      0.154896     -0.427055
O      13.56608      7.80886      2.30848         0.121502      0.409700      0.702437
O      13.63020      7.87316     15.03579         0.121354     -0.407799     -0.249207
O       1.92927      7.76631      6.72872         0.112034     -0.163541      0.285570
O      13.55473      7.80977      6.63689        -0.210864     -0.709380      0.268835
O       1.75344      7.80632     10.96852         0.651602     -0.081878     -0.410013
O      13.63809      7.76647     10.88669         0.097933      0.029313     -0.104986
O       1.88677     11.67542      2.64247         0.363567     -0.605368     -0.476060
O       1.91092     11.72683     14.90374        -0.005705      0.193508      0.597098
O      13.63821     11.66866      2.43625        -0.386386     -0.272465      0.244290
O      13.70479     11.75913     14.84866        -0.601941      0.064880      0.218072
O       2.01019     11.66170      6.73844        -0.370306      0.014098     -0.081882
O      13.62437     11.79660      6.81476        -0.024914     -0.856408      0.187959
O       2.00721     11.67345     10.71073        -0.409123     -0.402790      0.645576
O      13.50550     11.74209     10.70918        -0.657726     -0.602687      0.056723
O       5.89040      3.89935      2.68673        -0.017208     -0.080172     -0.288389
O       5.79241      3.87598     15.00034         0.600840      0.589180     -0.747692
O       5.75626      0.03693      2.38556        -0.248364     -0.626284      0.393313
O       5.85213     15.60432     14.85052        -0.256076      0.259755      0.308323
O       5.76455      3.96346      6.64391        -0.049977     -1.357735      0.138470
O       5.82448      0.00237      6.61276        -0.335448     -0.250021      0.574564
O       5.76879      3.91672     10.62876        -0.057135     -0.464236      0.466040
O       5.81884      0.02186     10.89193        -0.128654     -0.904211     -0.515435
O       5.99446      7.71503      2.56803        -0.553841      0.563778      0.160396
O       5.88153      7.72851     15.05750        -0.683783      0.410737     -0.256796
O       5.91414      7.80470      6.60353        -0.574356     -0.329841      0.193347
O       5.70879      7.77385     10.67081        -0.141498     -0.492356      0.505030
O       5.94208     11.64907      2.47391        -0.508924      0.433644      0.172569
O       5.74958     11.64937     14.79870         0.235130      0.153338      1.272798
O       5.83770     11.61257      6.59399        -0.176598      1.449435      0.174850
O       5.92146     11.56614     10.66232         0.143340      1.238305      0.699125
O       9.82523      3.83206      2.47900        -0.428539      0.128354      0.203734
O       9.61121      3.94536     15.00470         0.791030      0.002874     -0.678470
O       9.74795     15.56493      2.57995        -0.433058     -0.197334     -0.732501
O       9.64086      0.00290     14.86604         0.215483      0.076859      0.314633
O       9.71705      3.79108      6.82857         0.340203      1.343767     -0.358005
O       9.70094      0.01620      6.74680        -0.103986     -0.535876     -0.382074
O       9.59711      3.81053     10.68432         0.021316      0.869001      0.519274
O       9.51492     15.58447     10.93083         0.794363     -0.429314     -0.557973
O       9.78215      7.78990      2.56001        -0.371995      0.079075      0.018123
O       9.72651      7.78928     14.82075         0.066713      0.430856      0.366144
O       9.80048      7.69203      6.72654        -0.147544      0.298436     -0.710075
O       9.76387      7.70887     10.84739         0.077334      0.308634      0.385595
O       9.60631     11.70296      2.39010        -0.040395     -0.372935     -0.185474
O       9.59805     11.75081     14.84169         0.194407     -0.629186      1.095484
O       9.73003     11.74054      6.64527        -0.231841     -0.326996      0.144084
O       9.66635     11.56273     10.78831         0.226841      0.398191     -0.288684
