  # total energy = -7880.34624655 
CRSYTAL
PRIMVEC
    15.6080000000000005    0.0000000000000000    0.0000000000000000
     0.0000000000000000   15.6080000000000005    0.0000000000000000
     0.0000000000000000    0.0000000000000000   16.6239999999999988
PRESSURE
-0.111185 -0.390979 -0.181859 0.007706 -0.184514 -0.039125
PRIMCOORD
320 1
Pb       3.97179      4.07495      4.22417        -0.101355     -0.521764     -0.169110
Pb       3.96597      4.02627     16.48954         0.118513     -0.609671      0.794974
Pb       3.90010      0.08245      4.00506        -0.121939     -0.353515      0.478328
Pb       3.85412      0.03399     16.48185         0.113713     -0.261718      0.796243
Pb       0.17077      3.84703      4.21370        -0.487810      0.147980     -0.390246
Pb      15.58005      3.78991      0.00824         0.042683      0.489311      0.178065
Pb      15.39449      0.04295      4.12504         0.583674     -0.632463     -0.635291
Pb      15.47440      0.00898     16.55870         0.492245     -0.299721      0.684344
Pb       3.79571      3.81957      8.22958         0.016650      0.354680      0.288299
Pb       3.88160     15.49603      8.05350        -0.002585      0.311731      0.656123
Pb      15.54342      3.85968      8.39419        -0.289183      0.498907     -0.048766
Pb      15.57030     15.54097      8.24012         0.107012     -0.197662      0.332365
Pb       3.77614      3.85658     12.55347         0.082521     -0.147664     -0.449255
Pb       3.92954     15.53937     12.51227         0.077438      0.101754     -0.693552
Pb       0.00573      4.01660     12.62098        -0.156216     -0.445257     -0.199193
Pb       0.15345     15.55540     12.45254        -0.744528      0.002573      0.241357
Pb       3.89087      7.86970      4.08474         0.015866     -0.014392      0.173795
Pb       4.00232      7.77273     16.60359         0.019885      0.197828      0.083907
Pb       0.10283      7.78777      4.21988        -0.360801      0.623700     -0.147178
Pb      15.51203      7.75501     16.59995        -0.108955      0.234719     -0.083940
Pb       3.77051      7.72928      8.29337         0.556478     -0.168537     -0.103208
Pb      15.36834      7.67216      8.46807         0.146627     -0.203679     -0.422279
Pb       4.01039      7.78756     12.31950        -0.335756      0.157287      0.425615
Pb      15.47811      7.79690     12.52705        -0.020556     -0.099844      0.007766
Pb       3.80271     11.69941      4.01126         0.073246     -0.223640      0.755220
Pb       3.95147     11.63372     16.61093        -0.475955      0.157836     -0.312572
Pb      15.56909     11.64095      4.10785        -0.200552      0.191167      0.353092
Pb      15.49005     11.72818     16.51452         0.496205      0.168239      0.078575
Pb       3.86960     11.83194      8.21856        -0.442578     -0.214805      0.093488
Pb       0.16119     11.65059      8.17704        -0.521989      0.291545      0.613183
Pb       4.02932     11.49499     12.24627        -0.265930      0.420244      0.553430
Pb       0.18449     11.67770     12.43735        -0.477876      0.368035      0.022517
Pb       7.84688      3.72196      4.13410        -0.069257      0.081374      0.257767
Pb       8.01098      4.03273     16.59601        -1.337348     -0.208272      0.568001
Pb       7.85223     15.46140      4.12843        -0.606342      0.166440      0.453045
Pb       7.82723      0.13449     16.54527        -0.352773     -0.260357     -0.126310
Pb       7.58246      3.79568      8.46627         0.777411      0.421185     -0.414557
Pb       7.73013      0.07097      8.14164         0.170289     -0.762033      0.220561
Pb       7.80147      3.56344     12.58069         0.029447      0.613480     -0.642611
Pb       7.69469     15.38932     12.41127         0.430056      0.517336      0.604774
Pb       7.96050      7.85901      4.24329        -0.812704     -0.386468     -0.296610
Pb       7.63798      7.77364      0.01404         0.319810     -0.045757     -0.126200
Pb       7.72802      7.79554      8.11933         0.282424     -0.193291      0.826945
Pb       7.77537      7.67936     12.38311        -0.137208      0.333580     -0.208926
Pb       7.87164     11.54180      4.16703        -0.159186      0.663475      0.181452
Pb       7.75472     11.90072     16.56233         0.172742     -0.316344     -0.388154
Pb       7.77543     11.67488      8.13455         0.414686      0.220075      0.570409
Pb       7.84779     11.61312     12.31877        -0.142893     -0.262167      0.681293
Pb      11.75353      3.63772      4.20166        -0.363260      0.548000     -0.415737
Pb      11.68197      4.09678      0.30542        -0.141287      0.249693     -0.142627
Pb      11.39044     15.37939      4.09306         1.240134      0.358098      0.445848
Pb      11.73894     15.57142     16.53882        -0.550455      0.060006      0.361652
Pb      11.67038      4.13314      8.40386         0.303098     -0.862063      0.382271
Pb      11.81369      0.27587      8.44236        -0.119930     -0.248805     -0.165260
Pb      11.81934      3.79555     12.52191        -0.482182     -0.258711     -0.339424
Pb      11.57069     15.55549     12.39892        -0.195075      0.298594      0.185080
Pb      11.56684      7.75443      4.21133         0.413473     -0.052490     -0.325857
Pb      11.70602      7.88361      0.04576         0.064963     -0.458080     -0.236054
Pb      11.63201      7.79398      8.39413        -0.154959     -0.027548     -0.333028
Pb      11.50957      8.02513     12.49557         0.583451     -0.647434     -0.054797
Pb      11.85859     11.32011      4.13806        -0.129010      1.120943      0.465956
Pb      11.62754     11.62297      0.00144         0.112350      0.819175     -0.523003
Pb      11.82535     11.90527      8.39108        -0.196491     -0.321873     -0.020312
Pb      11.85856     11.80528     12.50119        -0.219990      0.293875     -0.441843
Ti       1.96269      1.97406      2.25284        -0.053664     -1.115339     -0.279615
Ti       1.84178      1.88327     14.80218         0.544703      1.126996     -0.222637
Ti       1.90907     13.60484      2.18939        -0.773427      1.009716      0.449882
Ti       1.94317     13.64517     14.68242        -0.492455     -1.362172      0.398022
Ti      13.63809      1.96162      2.16415        -0.345899     -0.311003      0.577204
Ti      13.54023      2.03673     14.78586        -0.138253     -0.579374     -1.287475
Ti      13.59041     13.63612      2.15295         0.352620     -0.317641      0.555875
Ti      13.59839     13.74497     14.67224         0.425609     -1.018898     -1.056592
Ti       1.81884      2.02782      6.40625         1.342310     -0.568070     -1.159251
Ti       1.83617     13.76091      6.26851         0.922548     -1.056165     -0.204680
Ti      13.64051      1.95604      6.24556        -0.691450     -0.185446      0.301449
Ti      13.62584     13.67369      6.32230         0.200221     -0.947785      0.040234
Ti       1.97812      1.97823     10.51963        -0.841047     -0.153190     -0.301242
Ti       2.02232     13.70489     10.54563        -1.116829     -1.401908     -0.677960
Ti      13.76200      1.86711     10.66909        -0.138049      0.608953      0.205045
Ti      13.64490     13.72012     10.52129         1.065545     -1.442997      0.500630
Ti       1.89131      5.80886      2.14938         0.011149      0.870355      0.397644
Ti       1.91232      5.82074     14.75498        -0.265117      0.404162     -0.790088
Ti      13.67725      5.93451      2.26490        -0.940234     -0.409686     -0.315246
Ti      13.56523      5.84593     14.81337         0.351458      0.698679     -0.493129
Ti       1.93498      5.90831      6.43404        -0.333187     -0.602698     -0.431681
Ti      13.63262      5.82732      6.26671         0.547334      0.669705      0.201819
Ti       1.90907      5.89215     10.64891        -0.810355     -0.380851      0.230036
Ti      13.56087      5.76780     10.70737         0.792580      0.441859     -1.120143
Ti       1.90720      9.72923      2.16666        -0.944834      0.226364      0.230919
Ti       1.91368      9.68946     14.76097        -0.174556      0.995491     -0.655585
Ti      13.60268      9.74462      2.07488         1.066686     -0.047913      1.771928
Ti      13.63933      9.86097     14.56669         0.307738     -0.658620      0.533115
Ti       1.92910      9.67466      6.46015        -0.900916      1.001172     -0.632169
Ti      13.58810      9.78253      6.55253         0.577833     -0.633204     -1.062510
Ti       1.79903      9.71007     10.56722        -0.195833      0.514554     -0.571946
Ti      13.54129      9.69845     10.46788         0.800316      0.923075      1.193001
Ti       5.83635      1.93577      2.21502         0.525004      0.371276     -1.099327
Ti       5.77646      1.93758     14.62583         0.323276      0.124042      0.704686
Ti       5.82352     13.62217      2.17499         0.100308      0.298700      0.271288
Ti       5.81737     13.65845     14.61155         0.488673     -0.532540     -0.620605
Ti       5.73027      2.00060      6.38001         0.660473     -1.545273     -0.545903
Ti       5.85121     13.59185      6.37668         0.688923      1.079002     -1.076148
Ti       5.76533      1.92855     10.45785        -0.410382     -0.313676      1.132294
Ti       5.92546     13.57141     10.49963        -1.145141      0.040604      0.023975
Ti       5.80438      5.82588      2.31390         1.077066      0.312304     -0.275674
Ti       5.91080      5.78321     14.57035        -0.018447      0.615345      1.122824
Ti       5.95506      5.77725      6.34153        -1.024694      1.556850      0.319198
Ti       5.80405      5.78140     10.46744         0.612942     -0.188237     -0.398335
Ti       5.90382      9.72061      2.29778        -0.856432     -0.280262     -0.372010
Ti       5.89843      9.76291     14.69341        -0.266249     -0.586881     -1.297770
Ti       5.74188      9.75149      6.39624         0.522109     -0.892976     -1.410416
Ti       5.83417      9.63742     10.32261         0.646603      0.148638      1.752129
Ti       9.74440      1.96885      2.18466        -0.033615     -0.545608      1.296388
Ti       9.66037      2.02208     14.68607         1.071585     -0.937724     -0.839302
Ti       9.70132     13.67351      2.08961         0.248447     -0.584574     -0.025411
Ti       9.73137     13.70074     14.63363        -0.267585     -0.462285     -0.872840
Ti       9.73905      1.92693      6.45513         0.090625     -0.179570     -0.622904
Ti       9.83811     13.61781      6.41344        -1.126323     -0.225381     -0.462112
Ti       9.65157      1.90762     10.52556         0.925844      0.231016     -0.707137
Ti       9.69492     13.61867     10.50220         0.460084     -0.159003      0.444383
Ti       9.69543      5.80372      2.30104         0.795626      0.456736     -0.225937
Ti       9.77108      5.88679     14.58622        -0.296651      0.269624      0.744855
Ti       9.79644      5.72280      6.40914         0.132175      0.254032     -0.900443
Ti       9.72568      5.82544     10.54835        -0.492205     -0.489622     -0.657681
Ti       9.67760      9.74922      2.17515         0.415489     -0.131877      0.744460
Ti       9.72492      9.73747     14.64151        -0.593446      0.517201     -0.105433
Ti       9.73643      9.70376      6.44983         0.339522      0.532953      0.003797
Ti       9.67120      9.69576     10.45411        -0.104458      0.243025     -0.612978
O       1.90819      1.87380      0.46418         0.142788      0.232015      0.497872
O       1.84473      1.84545     13.04353         0.269656      0.321551     -0.868271
O       2.05517     13.67684      0.43364         0.015312     -0.347185     -0.600802
O       1.79930     13.63420     12.90561         0.558457      0.365554     -0.165447
O      13.57257      1.70534      0.36365         0.190271      1.061412      0.550828
O      13.88575      2.07616     12.98189        -1.207408     -0.265590      0.664348
O      13.48297     13.53413      0.36812         0.274467      0.377511     -0.347337
O      13.64601     13.64383     12.85165        -0.606191      0.242766      0.802253
O       1.89197      2.05236      4.55649        -0.139292     -0.052001      0.552122
O       1.73841     13.67602      4.52764         0.420139     -0.019301     -0.135177
O      13.65413      1.82677      4.45644        -0.157950      0.643008      0.871296
O      13.68019     13.48798      4.57766        -0.090090      0.416135     -0.559174
O       1.94814      2.05677      8.69801        -0.033007     -0.240097      0.587406
O       1.87105     13.74940      8.75699         0.622578     -0.253538     -0.089227
O      13.69384      1.94058      8.90140        -0.083098     -0.209200     -0.963728
O      13.50323     13.80271      8.76165        -0.002103     -0.032511     -0.951529
O       1.97401      5.86868      0.39445        -0.425556     -0.015622      0.227668
O       1.90921      5.85192     12.90764         0.301830     -0.437610      1.160092
O      13.61429      5.95326      0.43385         0.153127     -0.493612     -0.425396
O      13.63358      5.77879     12.99908        -0.471834     -0.054189      0.033950
O       1.98264      5.84240      4.64195        -0.304498     -0.030049     -0.614778
O      13.61038      5.83634      4.47830        -0.156912      0.180013      0.241291
O       1.70696      5.80445      8.88718         0.594054      0.214196     -0.627363
O      13.70073      5.78146      8.85787        -0.233402     -0.067073      0.605650
O       1.68112      9.85093      0.42275         0.358938     -0.137137     -0.480179
O       1.88917      9.81651     12.96884         0.222817     -0.423438     -0.547404
O      13.57284      9.89797      0.34649         0.015611     -0.200688     -1.155869
O      13.61114      9.73780     12.78809        -0.410963      0.255582     -0.053802
O       2.05065      9.68586      4.70940        -0.239241     -0.207100     -0.894047
O      13.52961      9.74818      4.75052        -0.713771      0.338325     -0.526938
O       1.67599      9.56385      8.78814         0.670038      0.213605     -0.114883
O      13.74137      9.67617      8.71025        -0.399549     -0.046875     -0.381622
O       5.97247      2.05011      0.40535        -0.464740     -0.465556      0.743312
O       5.78178      1.94290     12.85104         0.094500      0.530548     -0.004660
O       5.77666     13.61212      0.40639        -0.044521     -0.210184     -0.857473
O       5.92745     13.50122     12.80501        -0.548463      0.587879      0.553104
O       5.78529      1.83713      4.63960         0.031117      0.685891     -0.619550
O       6.11921     13.77291      4.64319        -0.834568     -0.828480     -0.584691
O       5.53269      1.97670      8.69534         0.966912     -0.031322     -0.283258
O       5.78388     13.53383      8.73426        -0.094254      0.391457     -0.545665
O       5.90514      5.83126      0.51067         0.092339      0.054659      0.096924
O       5.73917      5.80276     12.83071        -0.001037      0.133139     -0.685000
O       5.77472      5.88714      4.56820        -0.009695     -0.400266      0.359850
O       5.87585      5.83926      8.67376        -0.332005     -0.401541     -0.149868
O       5.80540      9.57023      0.51105         0.291761      0.479341     -0.788341
O       5.89662      9.64245     12.86926        -0.436532     -0.177267      0.595644
O       5.89150      9.69741      4.55534        -0.597892      0.163947      0.045609
O       5.93877      9.80716      8.62412        -0.163467     -0.502850     -1.868919
O       9.69836      1.96737      0.45253        -0.268069     -0.175234     -1.828814
O       9.62341      2.04465     12.86448         0.026924     -0.029601     -0.041035
O       9.80597     13.78943      0.29783        -0.950072     -0.520783      0.612431
O       9.67897     13.60768     12.79487         0.072251     -0.016378      0.908477
O       9.85882      1.98427      4.60343        -0.221001     -0.053067      1.010261
O       9.56903     13.67747      4.57666         0.539697     -0.012067      0.509479
O       9.80342      1.86420      8.67839        -0.356602     -0.066620      1.139930
O       9.79620     13.55411      8.75778         0.064476      0.262733     -1.102318
O       9.65252      5.74437      0.44379        -0.181270      0.283653      0.448452
O       9.68547      5.79119     12.84010         0.355175     -0.056060     -0.634212
O       9.94442      5.73000      4.52549        -0.200122      0.238934      1.553269
O       9.87195      5.83367      8.71737        -0.278433     -0.162656      0.476159
O       9.69850      9.63050      0.45878         0.190756      0.438318     -1.709756
O       9.65970      9.76748     12.85604         0.385734     -0.484449     -0.047331
O       9.73195      9.61469      4.58810         0.469337      0.431248      0.028007
O       9.64819      9.57936      8.66842        -0.097575      0.252411      0.054314
O       3.90875      2.08740      2.60478        -0.687666     -0.435580     -0.415040
O       3.87853      1.99168     14.90585         0.208329     -0.012137      0.407300
O       3.91754     13.59026      2.68256         0.001587      0.090667     -0.507863
O       3.87921     13.65806     14.98830         0.204484      0.337131     -0.384577
O      15.53372      1.91921      2.56835         0.626088     -0.158090     -0.362024
O      15.56339      1.94827     15.07781        -0.500439      0.165841      0.415593
O      15.56305     13.55296      2.40101        -0.200846      0.172572     -0.122622
O      15.58175     13.72931     15.00532        -0.411043      0.170098      0.096013
O       3.85084      1.91992      6.64513        -0.734173      0.515533     -0.004804
O       3.81469     13.64109      6.51007         0.999288     -0.087232      0.508497
O      15.58834      1.96843      6.60276        -1.226781     -0.416264      0.234985
O       0.04386     13.61575      6.68252        -1.445915      0.290527      0.356641
O       3.84730      1.91152     10.91104        -0.247198     -0.073935      0.240600
O       3.87509     13.60157     10.86630         1.066806      0.132024      0.055894
O       0.06726      1.89280     10.84625        -0.354559     -0.326391     -0.071850
O      15.57488     13.56000     10.75210        -0.097526      0.388152      0.280746
O       3.91232      5.97443      2.49073        -0.883956     -0.667725      0.150682
O       3.86131      5.87338     15.04547         0.080686     -0.133112     -0.506841
O      15.56169      5.89995      2.51057         1.031905     -0.058103     -0.008590
O      15.51302      5.70406     14.97501         0.537366      0.365840      0.479362
O       3.83452      5.83965      6.69913         0.258947     -0.152369      0.355387
O      15.57366      5.96629      6.69219        -0.650783     -0.376785     -0.215040
O       3.82246      5.94431     10.79251        -0.295686     -0.651797      0.078112
O      15.53069      5.79387     10.98103         0.006258      0.188681      0.208948
O       3.77898      9.72424      2.34486         1.177605      0.054808      0.709233
O       3.81493      9.76801     15.11772         0.413449     -0.552995     -0.151447
O      15.54042      9.75192      2.74211        -0.073356     -0.385391     -0.860014
O      15.50796      9.89904     14.96470         0.223571     -0.618678     -0.089639
O       3.86041      9.70611      6.69895         0.595651     -0.123963      0.634321
O      15.52010      9.72690      6.51358         0.820083      0.089367      0.841143
O       3.95879      9.75646     10.64109        -0.913520     -0.768812      0.367530
O      15.50564      9.87802     10.86701         0.593490     -0.629643      0.025215
O       7.82413      1.88631      2.61724        -0.319306      0.530191     -0.360306
O       7.78116      1.93186     14.89697        -0.438686      0.370082      0.260729
O       7.69358     13.74179      2.35774         1.213805     -0.051189      0.104193
O       7.73856     13.65613     14.88238        -0.423963     -0.131106      0.832877
O       7.72096      1.92926      6.70961         0.378073      0.483883      0.185688
O       7.78662     13.68135      6.73764        -0.184702     -0.353784      0.405783
O       7.66127      1.90503     10.75674         0.722134      0.569656     -0.196386
O       7.77745     13.56333     10.78738        -0.417857      0.061687     -0.042877
O       7.88330      5.69979      2.82569        -0.442638      0.541964     -1.030710
O       7.78825      5.93917     14.84264        -0.156709     -0.619853      0.324168
O       7.82341      5.78715      6.74919        -0.002710     -0.201979     -0.685901
O       7.73246      5.93286     10.69322         0.536766     -0.514453      0.340806
O       7.75527      9.66696      2.52217         1.271841      0.213645      0.234574
O       7.74520      9.73301     14.95379         0.387114      0.091355      0.539923
O       7.82176      9.84146      6.48701        -0.604624     -0.722047      0.722363
O       7.80063      9.47663     10.70813        -0.540587      0.350338      0.359279
O      11.68028      1.90971      2.48117         0.506921      0.009817     -0.016313
O      11.59144      1.89183     14.89155         0.651619      0.154612      0.073711
O      11.61424     13.65316      2.37864        -0.198647     -0.190396      0.442075
O      11.60059     13.55170     15.02125         1.232904      0.647599     -0.627478
O      11.75467      1.87607      6.62924        -0.018206      0.249494      0.087532
O      11.71541     13.58965      6.53726        -0.551811      0.177085      0.337730
O      11.64642      1.83274     10.87384        -0.267494     -0.082922      0.180588
O      11.55084     13.75922     10.90995         1.166958     -0.480610     -0.222747
O      11.66408      5.82054      2.27793         0.307871     -0.045202      0.701565
O      11.65176      5.99707     15.07624        -0.118454     -0.651929     -0.065992
O      11.72371      5.76159      6.75582        -0.129666      0.182152     -0.425792
O      11.67283      5.68542     10.79792        -0.009280      0.129354      0.465253
O      11.72149      9.68452      2.52749        -0.757421      0.343323     -0.360603
O      11.68082      9.77557     14.86853        -0.669494      0.116605      0.350856
O      11.56286      9.79927      6.86682         1.248745      0.010506     -0.296658
O      11.64331      9.52244     10.65661         0.184784      0.881700      0.330906
O       1.81260      3.89404      2.43302         0.318854      0.654265      0.214228
O       1.89349      3.89165     15.16916         0.243450      0.333514     -0.622557
O       1.94982     15.52125      2.51791         0.199824      1.290552      0.087915
O       1.94824      0.06294     15.07158        -0.013753     -1.602369     -0.114835
O      13.70531      3.88197      2.45597        -0.555564     -0.677427     -0.368998
O      13.46880      3.89502     15.19320         0.272295      0.097141     -0.219973
O      13.61853     15.49057      2.50346         0.123371      0.564753     -0.084290
O      13.59134      0.03787     15.03431        -0.109164     -0.735776     -0.496350
O       1.73770      3.90768      6.67293         0.727601      0.254135      0.219864
O       1.92562      0.02652      6.71009        -0.350965      0.354412     -0.369797
O      13.61023      3.90873      6.65015         0.489990     -0.630725     -0.355053
O      13.66338     15.54576      6.60087         0.390291      1.232848      0.157150
O       1.80689      3.83213     10.96838         1.045472      0.345465     -0.186893
O       1.90143     15.50263     10.92634         0.550931      1.839815     -0.118300
O      13.61890      3.80412     10.98050         0.142955      0.650942     -0.101907
O      13.65615     15.57022     10.83229        -0.128543      0.853509      0.622747
O       1.84142      7.84205      2.51625         0.213123     -0.905945      0.082025
O       1.76302      7.79350     15.02716         0.222047     -0.492455     -0.025620
O      13.58692      7.82798      2.32908         0.219824     -0.046899      0.554906
O      13.64790      7.88372     15.04361         0.110994     -0.571674     -0.148993
O       1.98739      7.76905      6.70476        -0.260567      0.119146      0.296458
O      13.55342      7.81462      6.63860        -0.232111     -0.907979      0.533917
O       1.77085      7.80386     11.00770         0.513210      0.109897     -0.413028
O      13.62812      7.79311     10.88194         0.219304     -0.491150     -0.082121
O       1.89328     11.69447      2.64525         0.355951     -0.464734     -0.439151
O       1.87148     11.71461     14.89376         0.211844      0.796776      0.740448
O      13.62854     11.63057      2.46124        -0.430590      0.320457      0.375425
O      13.63494     11.77926     14.83388        -0.418545     -0.330937      0.302821
O       1.98969     11.67889      6.70034        -0.205314     -0.095808      0.164381
O      13.65715     11.75211      6.79689        -0.221224     -0.349684      0.190579
O       2.04298     11.64701     10.77045        -0.467172     -0.228105      0.293631
O      13.52798     11.77005     10.68123        -0.902658     -0.964946      0.385775
O       5.84880      3.90476      2.66709         0.025996     -0.006029     -0.025115
O       5.83789      3.90230     15.01537         0.073760      0.382967     -0.716229
O       5.78486      0.04524      2.39890        -0.381716     -0.340313      0.303782
O       5.87713      0.02088     14.84982        -0.527790     -0.488233      0.290514
O       5.74038      3.93242      6.62448         0.207483     -0.601341      0.161132
O       5.84563     15.58989      6.60885        -0.447249     -0.113489      0.900263
O       5.75469      3.87281     10.69767        -0.102735     -0.251933      0.316315
O       5.88144     15.60095     10.95073        -0.832930     -0.705464     -0.825310
O       6.00599      7.75690      2.57895        -0.532104     -0.139889      0.062587
O       5.87055      7.74079     15.08693        -0.613949      0.112194     -0.461495
O       5.88643      7.79816      6.59934        -0.209832     -0.286792      0.387286
O       5.73571      7.68585     10.66648         0.041642      1.169106      0.474514
O       5.91547     11.64782      2.44852        -0.325612      0.328519      0.287268
O       5.78457     11.64772     14.80339        -0.009501      0.546184      1.187698
O       5.82171     11.62454      6.60597        -0.191375      1.220268      0.183356
O       5.93330     11.59013     10.69736        -0.171683      0.346420      0.351852
O       9.84424      3.83380      2.50070        -0.406326      0.271477      0.072912
O       9.64310      3.92321     15.01005         0.583918      0.231473     -0.496874
O       9.72587     15.59281      2.57755        -0.259110     -0.205181     -0.729542
O       9.64285     15.59441     14.84437         0.203166      0.569414      0.465723
O       9.69726      3.83210      6.81360         0.302998      0.331520     -0.343636
O       9.69975     15.58703      6.70684         0.186019      0.068674     -0.100993
O       9.66976      3.82011     10.77132        -0.308106      0.002640      0.023162
O       9.52470     15.53048     10.91832         0.659809      0.968406     -0.570164
O       9.80382      7.84069      2.50953        -0.541039     -1.035011      0.339227
O       9.68248      7.79844     14.82167         0.287866      0.429270      0.331017
O       9.82216      7.69010      6.69362        -0.409414      0.158519     -0.476687
O       9.80285      7.70877     10.81680        -0.098535      0.002241      0.493756
O       9.58345     11.71651      2.38758         0.255885     -0.177641     -0.067925
O       9.65497     11.76502     14.86798        -0.069108     -1.344391      0.911635
O       9.68183     11.68815      6.68058         0.265165      0.260462     -0.209241
O       9.66133     11.57011     10.80928         0.365159      0.409271     -0.390530
