  # total energy = -7883.00682216 
CRSYTAL
PRIMVEC
    15.6080000000000005    0.0000000000000000    0.0000000000000000
     0.0000000000000000   15.6080000000000005    0.0000000000000000
     0.0000000000000000    0.0000000000000000   16.6239999999999988
PRESSURE
-1.06307 -1.12853 -0.42382 -0.219674 0.368796 -0.004666
PRIMCOORD
320 1
Pb       3.97342      3.83433      4.17041        -0.446468     -0.010584     -0.440944
Pb       3.87123      3.86839      0.03008        -0.321410     -0.213582     -0.135273
Pb       3.92184      0.00485      4.14102         0.297328      0.014045     -0.243057
Pb       3.83931     15.53542     16.58759         0.141291      0.165112     -0.304792
Pb      15.48230      3.84734      4.09475         0.579161     -0.073325      0.221097
Pb      15.58246      3.83123     16.58717        -0.810063      0.254629     -0.235600
Pb       0.03028     15.57735      4.08892        -0.341916      0.522465      0.720046
Pb       0.06073     15.60442      0.00685        -0.263702      0.096258     -0.395060
Pb       3.89322      3.89324      8.29745        -0.062908      0.131802     -0.150865
Pb       3.97279      0.13915      8.35073        -0.142079     -0.595700     -0.022334
Pb      15.55653      3.93644      8.23104        -0.194851     -0.408058      0.080873
Pb       0.06713     15.60578      8.26970        -0.112192      0.106726     -0.289832
Pb       3.71955      4.00965     12.58142         0.358317     -0.524319      0.125461
Pb       3.80921     15.46480     12.45982         0.180199      0.288688      0.224923
Pb      15.56664      3.85055     12.41220        -0.620080      0.126534      0.515875
Pb       0.05740     15.59822     12.45381        -0.343617     -0.384417     -0.150283
Pb       3.75185      7.85337      4.04909         0.159750     -0.572862      0.282796
Pb       3.79887      7.69386     16.56318         0.088807      0.463359      0.520982
Pb       0.00840      7.88771      4.02020         0.139185     -0.546493      0.347480
Pb      15.57540      7.78616     16.59945        -0.128828     -0.333007      0.060323
Pb       3.96294      7.79322      8.31934        -0.360816      0.208223     -0.165064
Pb      15.46553      7.78213      8.45911         0.112134      0.264599     -0.717803
Pb       3.85759      7.85331     12.53593        -0.196828      0.330608     -0.621701
Pb      15.46504      7.72902     12.47308         0.155731      0.339668     -0.412728
Pb       3.91110     11.71102      4.13363         0.004798      0.297755     -0.401507
Pb       3.87275     11.67925     16.53393         0.264686     -0.076125     -0.303864
Pb      15.59762     11.81007      4.10926        -0.095945      0.090649      0.457471
Pb       0.02995     11.80625      0.07576        -0.142502     -0.030024     -0.452184
Pb       3.85930     11.80031      8.31373        -0.121216     -0.776062     -0.101678
Pb      15.46210     11.68831      8.18912         1.084371     -0.216826     -0.019605
Pb       3.81476     11.79297     12.42785         0.040988     -0.688095     -0.304362
Pb      15.58651     11.53730     12.40091         0.278662      0.154393     -0.168724
Pb       7.72550      3.77028      4.11249         0.249274      0.095647     -0.053390
Pb       7.63277      3.76970     16.56885         1.064231      0.255294      0.460254
Pb       7.71721     15.53147      4.10750         0.016143      0.145035     -0.031270
Pb       7.77702     15.55968      0.01732        -0.262959      0.055780     -0.093860
Pb       7.74962      3.86697      8.44569         0.115806      0.112828      0.010765
Pb       7.87137     15.54383      8.41864        -0.494048      0.116576     -0.393620
Pb       7.79579      3.84885     12.51635        -0.100902     -0.221440     -0.776706
Pb       7.89744      0.05179     12.53073        -0.440970     -0.206376     -0.424249
Pb       7.72482      7.79507      4.00248         0.469665      0.296100      0.471837
Pb       7.77443      7.84260     16.53566         0.502730     -0.226678     -0.047439
Pb       7.93610      7.85207      8.33014        -0.458731     -0.049142     -0.289699
Pb       7.93264      7.66886     12.49052        -0.450748      0.519859     -0.406620
Pb       7.78681     11.77738      4.03931         0.241695     -0.256685      0.268065
Pb       7.77055     11.63486     16.53457         0.281148      0.199792     -0.298674
Pb       7.66784     11.68276      8.29878         0.095379      0.068391     -0.021095
Pb       7.79830     11.58635     12.48361        -0.192191      0.474035     -0.381548
Pb      11.75542      3.95031      4.28478        -0.388436     -0.394343     -0.218204
Pb      11.76153      3.99651      0.07942         0.281607     -0.595865     -0.571465
Pb      11.62812      0.11173      4.19517         0.237334     -0.153942      0.188733
Pb      11.64849     15.57361     16.57414         0.801177      0.330773      0.062506
Pb      11.63408      4.00173      8.34920         0.471305     -0.344656     -0.096465
Pb      11.49010     15.53741      8.24854         0.693770      0.685714      0.056204
Pb      11.72765      3.77520     12.45708         0.262281      0.313869     -0.600915
Pb      11.68586     15.48529     12.39587         0.391876      0.366588     -0.133820
Pb      11.75946      7.62961      3.97551        -0.684309      0.636878      0.617917
Pb      11.66462      7.77480      0.00291        -0.055895      0.275879     -0.273100
Pb      11.64941      7.84049      8.14934         0.709513     -0.462031      0.590178
Pb      11.56874      7.83697     12.51719         0.611107     -0.222634     -0.712495
Pb      11.70139     11.64633      4.31135        -0.357375      0.333153     -0.567396
Pb      11.90151     11.73642     16.58611        -0.741973     -0.293941     -0.107176
Pb      11.74929     11.76394      8.35629        -0.334051     -0.062344     -0.982066
Pb      11.61396     11.67505     12.33788         0.312687     -0.084339      0.619308
Ti       1.92919      1.95036      2.12267         0.268257      0.550290      0.792796
Ti       1.90689      1.94613     14.65876        -0.111624     -0.594043     -0.242487
Ti       1.91350     13.75960      2.20860         1.098570     -0.596554     -0.601806
Ti       1.91533     13.58539     14.65649        -0.186392      0.536504      0.970307
Ti      13.62737      1.92143      2.20373         0.006972     -0.127040     -0.439808
Ti      13.63657      1.79908     14.62514        -0.255692      0.878618      0.962820
Ti      13.62941     13.75217      2.23797         0.222740     -0.457763      0.916201
Ti      13.66950     13.57150     14.63676         0.289116      0.768597      0.026511
Ti       1.98988      1.84294      6.31193        -0.801050      0.967862     -0.129406
Ti       2.02380     13.62053      6.39452        -1.157053     -0.128290     -0.585155
Ti      13.61455      1.90861      6.42434        -0.268508      0.099109      0.316569
Ti      13.61612     13.72688      6.42383         0.244844     -0.129156     -0.750635
Ti       1.98063      1.95181     10.54962        -0.668374     -1.058796     -0.330977
Ti       1.93975     13.64327     10.47338        -0.968700     -1.251336     -0.651323
Ti      13.73426      1.88896     10.48787        -0.960423      0.588203     -1.235717
Ti      13.67105     13.57867     10.42011         0.707175      0.630054      2.248805
Ti       1.93457      5.79222      2.16867         0.319506     -0.032979     -0.359510
Ti       2.03969      5.81776     14.66544        -2.146213     -0.170968      0.844439
Ti      13.61123      5.77197      2.27512         0.699576     -0.551804     -1.465973
Ti      13.68618      5.77844     14.66031        -0.008350     -0.783741      0.611771
Ti       2.01168      5.70750      6.37311        -0.827428      0.995857      1.159280
Ti      13.68034      5.82650      6.37043        -0.471433      0.112180      0.056135
Ti       1.96700      5.68721     10.49788        -0.823037      2.027788     -0.244655
Ti      13.62022      5.87048     10.56037        -0.776445     -0.252275     -0.046475
Ti       1.88923      9.78690      2.15150         0.524878     -0.347486     -0.746555
Ti       1.86100      9.66924     14.72952         0.626479      0.837203     -0.682226
Ti      13.64485      9.85032      2.21125        -0.896624     -0.304619     -0.373147
Ti      13.69018      9.68584     14.74126        -0.712758      0.452689     -0.001425
Ti       1.98902      9.64934      6.44926        -0.461210     -0.103430      0.383350
Ti      13.64591      9.77131      6.26615         0.729350     -0.488080      0.126171
Ti       1.94681      9.60474     10.45313        -0.041037      0.940852      0.831217
Ti      13.59852      9.76124     10.50411         0.300900     -1.750332     -0.304456
Ti       5.81982      1.96403      2.13832        -0.285685     -1.021053     -0.225492
Ti       5.83049      1.88162     14.62027        -0.621166     -0.584743      0.055090
Ti       5.87345     13.63658      2.13086        -0.729739      0.406133     -0.071404
Ti       5.83508     13.62584     14.68201         0.194052      0.082877      0.893291
Ti       5.83410      1.98286      6.46852        -0.029962     -1.095516     -1.478352
Ti       5.82935     13.66683      6.36259         0.146058      0.417368     -0.933899
Ti       5.76002      1.95675     10.60883         0.978362     -0.196043     -0.253034
Ti       5.85038     13.74145     10.55997         0.699912     -0.809175      0.377789
Ti       5.91354      5.85636      2.12631        -1.309027     -0.104315     -0.747211
Ti       5.89759      5.79784     14.73871         0.390154      0.000285      0.028954
Ti       5.90033      5.83558      6.36243        -0.138187      0.566247      0.246025
Ti       5.76291      5.89366     10.53150         0.802192      0.188063     -0.468301
Ti       5.79497      9.73031      2.15231         0.263962      0.345420      0.398195
Ti       5.89034      9.66200     14.60626        -0.751207      0.980155      1.250665
Ti       5.89184      9.71937      6.28371        -0.341053     -0.125007      0.449517
Ti       5.75110      9.80426     10.47965         0.198122     -0.151813      1.160776
Ti       9.72565      1.93535      2.22587         0.208668      0.003652     -0.280116
Ti       9.76109      1.89426     14.68693         1.043470      0.524629     -0.384773
Ti       9.91889     13.65037      2.15023        -0.689106     -0.720904      1.851659
Ti       9.77273     13.66845     14.66156        -0.009527     -1.437159      0.137404
Ti       9.60767      1.98793      6.39687         1.391711     -0.548396      0.392764
Ti       9.63917     13.64252      6.38234         1.247032     -0.314846     -0.153381
Ti       9.76378      1.94180     10.53619         0.061584      0.423955      1.112882
Ti       9.73172     13.64077     10.55778        -0.889004     -0.214545      0.122758
Ti       9.65110      5.84536      2.15326         1.196324     -0.772596      0.163275
Ti       9.79000      5.78647     14.63181         0.077797     -0.003782      1.515658
Ti       9.66957      5.83141      6.39232         1.117114      0.304121     -0.403784
Ti       9.72326      5.84113     10.48172         1.096017      0.065265      0.368560
Ti       9.72087      9.74475      2.18379         0.757143      0.557114      0.053541
Ti       9.82314      9.78374     14.62135         0.211543      0.311699      2.001147
Ti       9.76146      9.78027      6.33246        -0.410152     -0.503355      0.142284
Ti       9.69397      9.71535     10.47068         0.168521     -0.166949      0.785320
O       1.97560      1.92646      0.34251        -0.138544      0.138933     -0.429716
O       1.85129      1.93174     12.85496         0.270416     -0.360370      0.342528
O       1.96166     13.69745      0.38490        -0.073504      0.154772      0.744827
O       1.96791     13.66918     12.90733        -0.272522     -0.227770     -1.335923
O      13.64435      1.88228      0.43292         0.153475     -0.036925      0.299219
O      13.70257      1.86345     12.83881        -0.171172     -0.020026     -0.512794
O      13.74818     13.59136      0.50467        -0.274281      0.248636     -0.891473
O      13.75642     13.53169     12.88376        -0.334289      0.252718     -0.334515
O       2.13104      1.92893      4.52653        -0.175176      0.122765      0.347415
O       1.98677     13.72213      4.53542         0.195128     -0.578148      0.489978
O      13.56433      1.91665      4.62509         0.063375      0.144303     -0.167060
O      13.71262     13.67678      4.62654        -0.297564     -0.301573     -0.101355
O       1.99167      1.86250      8.74539         0.112270      0.189897      0.630342
O       1.85436     13.72547      8.66796         0.305622     -0.324142      0.425957
O      13.71216      2.04658      8.65860         0.230395     -0.633914      1.669071
O      13.62883     13.54484      8.69305        -0.011428     -0.206205     -1.174599
O       2.04567      5.79374      0.33296        -0.409416     -0.022490      1.146870
O       1.88101      5.85157     12.90730         0.693092      0.019048     -1.025261
O      13.67453      5.54067      0.44500        -0.199041      0.928884      1.136494
O      13.65841      5.81648     12.87392         0.133824      0.184459      0.255792
O       2.05446      5.85283      4.65686        -0.178514     -0.127011     -1.306630
O      13.59988      5.71242      4.55262        -0.019731      0.088621     -0.081101
O       1.95954      5.62160      8.73427         0.043295     -0.092356      0.133115
O      13.56234      5.87420      8.76175         0.506906     -0.115881     -0.258785
O       1.85982      9.65545      0.34285         0.362531      0.233548      0.811866
O       1.76227      9.69079     12.93141         0.464968     -0.228196      0.333125
O      13.65704      9.77694      0.38495        -0.113002     -0.058092      0.822448
O      13.80740      9.75185     12.97566        -0.378939     -0.325301     -0.768547
O       2.00822      9.61982      4.64898        -0.118080      0.052020     -0.615598
O      13.65187      9.88729      4.46246         0.447944     -0.544428      0.234852
O       1.94212      9.68014      8.71225        -0.001115      0.269578     -0.500372
O      13.72378      9.58357      8.72864        -0.366124      0.951272     -0.117908
O       6.00784      1.90669      0.32575        -0.413427      0.211057      0.349244
O       5.91991      1.93806     12.79335        -0.155809      0.036275      0.907860
O       5.82315     13.61515      0.30806         0.169109      0.107893      1.006828
O       5.82820     13.65780     12.95611        -0.063056      0.088091     -1.417985
O       5.74982      1.92902      4.58170         0.172526      0.442835      1.159345
O       5.76389     13.69557      4.52046         0.038729     -0.112115      0.980236
O       5.68747      1.75238      8.74958         0.447583      0.917985      0.768935
O       6.01850     13.74727      8.78715        -0.208758     -0.406038     -0.288959
O       5.88224      5.76179      0.29304         0.078334     -0.089213      0.735863
O       5.82336      5.78545     12.97308        -0.052830     -0.173505     -0.755748
O       6.02579      5.80320      4.61086        -0.452835     -0.150236     -0.853337
O       5.78163      5.93703      8.74723         0.149966     -0.319967      0.321365
O       5.81108      9.89209      0.39296         0.105718     -0.481542     -0.154267
O       5.87260      9.69879     12.88207        -0.026957     -0.015513     -0.131895
O       6.00752      9.72038      4.47148        -0.682422     -0.169197      0.927741
O       5.69891      9.78856      8.71695         0.679028      0.058268      0.226455
O       9.68969      1.74241      0.42995         0.084261      0.360257      0.498257
O       9.74794      1.87258     12.83610         0.194587      0.181407      0.840987
O       9.90569     13.59485      0.42315        -0.389272      0.142657     -0.998294
O       9.75173     13.52514     12.88944         0.370881      0.623845     -0.613730
O       9.64461      1.88134      4.61392         0.009131      0.315387      0.056040
O       9.78121     13.54422      4.64539        -0.092321      0.573170     -0.376146
O       9.73903      1.98641      8.81499        -0.290819     -0.248121     -1.280181
O       9.66011     13.63587      8.75899        -0.038556     -0.331198      0.126791
O       9.65969      5.68921      0.40833         0.556294      0.526912     -0.220285
O       9.67275      5.87734     12.86808         0.274748      0.024081     -0.122885
O       9.78902      5.83947      4.59985        -0.357577     -0.150316      0.094591
O       9.89857      5.85308      8.70719        -0.801586      0.173480      0.006853
O       9.94537      9.79583      0.43552        -0.773230      0.056285     -0.036548
O       9.72984      9.66537     12.89325         0.027118     -0.034649     -1.441905
O       9.50945      9.56824      4.61155         0.475172      0.372359     -0.430559
O       9.73224      9.68256      8.71414         0.103136      0.282174     -0.559285
O       3.88277      1.95030      2.36656         0.132000      0.382203      0.203739
O       3.89404      1.96598     15.02111         0.686983     -0.122612     -0.511028
O       3.91039     13.63122      2.38831        -0.739285     -0.131152      0.438777
O       3.85585     13.64314     14.83498         0.203898     -0.016267      0.887921
O       0.04503      1.91448      2.50465        -0.705797      0.224123      0.160611
O      15.55762      1.91595     14.96973         1.008873     -0.134285      0.098727
O       0.01881     13.80403      2.50256        -0.190864     -0.803256      0.182720
O       0.03149     13.82948     15.11327        -0.345718     -1.024879     -0.559206
O       3.93549      2.01758      6.67992        -0.417230      0.080237      0.212817
O       3.93560     13.63123      6.72695        -0.497157     -0.119793     -0.101322
O      15.57375      1.72437      6.55710         0.426594      0.414891      0.272965
O       0.01528     13.60265      6.57645         0.072853      0.322311      0.572970
O       3.84863      1.80213     10.96893         0.494850      0.886874     -0.409049
O       3.90356     13.57016     10.65336        -0.029117      0.324982      0.781835
O       0.03421      1.93230     10.76983        -0.098228     -0.522660      0.224449
O      15.56738     13.53733     10.78678         0.271169      0.100690     -0.153705
O       3.95646      5.90031      2.45530         0.196726     -0.616745      0.094681
O       3.86301      5.76143     15.09163         1.641855      0.204794     -0.789618
O       0.01159      5.83769      2.57272         0.129552     -0.189291     -0.122013
O      15.56332      5.70243     15.06709         0.667146      0.854538     -0.349594
O       3.90630      5.72684      6.63266         0.534637     -0.330780      0.292253
O      15.58471      5.70458      6.62261        -0.210804      0.519080      0.174493
O       3.88085      5.63252     10.79126         0.059016     -0.321167      0.460656
O       0.00239      5.89452     10.80165         0.750075      0.070504      0.030498
O       3.83559      9.64779      2.53513         0.480186      0.807575     -0.312084
O       3.82116      9.74999     14.93718         0.858552     -0.189096     -0.015951
O       0.02351      9.62323      2.38795        -0.852267     -0.035714      0.592851
O      15.55353      9.64710     15.01473         0.676099     -0.162430      0.454040
O       3.91543      9.79857      6.80190         0.506949     -0.245089     -0.929958
O      15.58141      9.72980      6.61385         0.004864      0.198795      0.112011
O       3.89283      9.83265     10.86789         0.012244     -0.055302      0.314002
O       0.02343      9.57120     10.76622        -0.241580      0.265763      0.240826
O       7.64630      1.78453      2.56927         1.781672      0.161809     -0.017924
O       7.90216      1.70369     14.96754        -0.339964      0.511426     -0.342841
O       7.78108     13.73580      2.55181        -0.125222     -0.407928     -0.633758
O       7.84051     13.75958     14.96788         0.037756     -0.239865      0.164396
O       7.76675      1.93066      6.82417        -0.168616      0.078056     -0.087002
O       7.79329     13.73275      6.64235        -0.987015     -0.559043      0.212354
O       7.80692      1.91855     10.84783         0.095195     -0.269862     -0.029320
O       7.82526     13.72741     11.01539         0.124889     -0.343409     -0.544730
O       7.84318      5.83440      2.38196        -1.496337      0.351230      0.571602
O       7.85701      5.86293     14.99274        -0.464198      0.109792     -0.249918
O       7.79712      5.95140      6.67796         0.188716     -0.420310      0.523567
O       7.83034      6.00118     10.74756        -0.923878     -0.149090      0.254761
O       7.79103      9.72258      2.44713        -0.118532      0.125907     -0.452823
O       7.86817      9.73734     14.96682        -1.299584     -0.274049      0.269561
O       7.76017      9.86781      6.82072        -0.080899     -0.982983     -0.390540
O       7.78349      9.65579     10.81174        -0.334723     -0.179013     -0.166098
O      11.70618      2.00782      2.54353        -1.138440     -0.215574      0.007603
O      11.77259      1.88569     15.07133        -1.106816      0.349232     -0.430987
O      11.77981     13.63199      2.53711        -0.456196     -0.298195      0.090873
O      11.72928     13.51948     14.96696         0.556006     -0.072146     -0.015621
O      11.67440      1.81822      6.79996        -0.915724      0.548014     -0.587543
O      11.65195     13.66670      6.76114        -0.006990     -0.585234      0.046371
O      11.75029      2.02449     10.80099         0.119450     -0.367723      0.284526
O      11.65674     13.57007     10.81225         0.465991     -0.189031     -0.025072
O      11.65411      5.58884      2.53940         0.199525      0.640078     -0.239495
O      11.74453      5.80329     15.08571        -0.628227     -0.144535     -0.407432
O      11.69850      5.82113      6.71877         0.293022     -0.111647     -0.416270
O      11.69952      5.78745     10.89802        -0.030520      0.023278      0.196418
O      11.71189      9.67105      2.54708         0.473437      0.495217      0.169764
O      11.69817      9.80755     14.93294         0.905307      0.020173      0.069654
O      11.73264      9.79014      6.50563        -0.483044     -0.115933      0.292616
O      11.69387      9.69068     10.85356        -0.124746      0.452907      0.035696
O       1.96254      3.89872      2.46848         0.114625      0.007473      0.148429
O       2.05843      3.91037     14.81389        -0.322025     -0.777740      0.501672
O       1.83830      0.06265      2.50213         1.032670     -0.957478     -0.336233
O       1.91795      0.00884     14.92689         0.493545      0.220640      0.200615
O      13.71328      3.80422      2.49431         0.037420      0.467174      0.693448
O      13.70001      3.79347     15.04570        -0.464194      0.590249     -0.532687
O      13.58303      0.00086      2.59044         0.254911      0.191671     -0.079765
O      13.57848     15.52999     14.92551         0.214245     -0.037954      0.179488
O       1.82999      3.75451      6.72464         0.635981      0.667920     -0.300138
O       2.01031      0.00020      6.61550         0.159980     -0.829013      0.231063
O      13.60677      3.85374      6.65395         0.131151      0.369277     -0.005206
O      13.50144     15.55490      6.75920         0.671470     -0.031832      0.114172
O       1.87222      3.81523     11.00669         0.647819      0.426570     -0.746214
O       1.96908     15.50416     10.84599        -0.302711      0.744632      0.195616
O      13.77347      3.92297     10.84596        -0.338012     -0.785845      0.075483
O      13.70978     15.48096     10.72673        -0.351575      0.882310      0.149937
O       1.98916      7.72714      2.46604        -0.395020      0.455921      0.259563
O       1.96511      7.74057     15.01117        -0.239210      0.054606     -0.016871
O      13.60942      7.64739      2.50601         0.116226      0.779148     -0.151117
O      13.57855      7.75258     15.08487         0.423639     -0.118014     -0.231844
O       1.96375      7.74325      6.85050         0.082953     -0.323086     -0.553120
O      13.64023      7.82004      6.67680         0.144495     -0.546961     -0.604265
O       2.23026      7.75379     10.65999        -0.449800     -0.973663      0.580025
O      13.59909      7.80879     10.79818         0.299915     -0.399979      0.778390
O       1.78671     11.68023      2.43507         0.518808      0.125341      0.179408
O       1.85639     11.68291     15.04745        -0.093748      0.044179     -0.255801
O      13.71503     11.70273      2.51004         0.225127     -0.100402     -0.072770
O      13.79407     11.71880     15.01964         0.015919     -0.667351      0.277407
O       1.97048     11.65677      6.73506         0.067220      0.806764     -0.278668
O      13.63218     11.69714      6.71942        -0.371305     -0.204248     -0.046145
O       1.98459     11.64482     10.85115        -0.288171      0.569354     -0.063567
O      13.60980     11.59831     10.84274         0.150684      0.891287     -0.389197
O       5.94988      3.89159      2.43777        -0.287125      0.183733      0.119891
O       6.00356      3.79008     14.92531        -0.349111      0.485356     -0.123236
O       5.69499      0.02282      2.49668         0.479967     -0.832751     -0.319051
O       5.85625     15.60693     15.01375        -0.346914      0.012413     -0.154376
O       5.96224      3.88297      6.77013        -0.279490      0.229176      0.022729
O       5.74049     15.60743      6.70850         0.446009     -0.009204     -0.271755
O       6.04392      3.84362     10.66973        -0.677872      0.349015      0.382413
O       5.83848     15.57908     10.86555        -0.123921      0.310447      0.261216
O       5.86766      7.77748      2.29173         0.301314     -0.006921      0.395245
O       5.87690      7.74580     14.94630        -0.154903      0.415027      0.222994
O       5.85178      7.78636      6.68085        -0.018746      0.481760     -0.341749
O       5.54582      7.77793     10.92498         0.918785     -0.307090     -0.502990
O       5.80618     11.68101      2.54544         0.025141      0.265858     -0.260036
O       5.84316     11.70792     15.00259         0.321811     -0.628636     -0.253955
O       5.86728     11.73470      6.61130        -0.074186     -0.095899      0.171657
O       5.87404     11.71069     10.94043         0.243237     -0.158798     -0.454369
O       9.53439      3.80404      2.53208         0.315235     -0.279133     -0.175925
O       9.79370      3.86385     14.91317        -0.307528     -0.442830     -0.247414
O       9.85641     15.49943      2.59134        -0.451865      1.039874     -0.146195
O      10.05514     15.52330     14.91997        -1.105204      0.722249     -0.314178
O       9.72589      3.89798      6.79880        -0.309572     -0.312370     -0.477002
O       9.63973     15.58668      6.66122         0.355060      0.379816      0.454217
O       9.74716      3.96239     10.75354        -0.388516     -0.808299      0.590566
O       9.83314     15.59346     10.75740        -0.089011     -0.369459      0.414336
O       9.81138      7.81624      2.39446        -0.233399     -1.150558      0.129256
O       9.88745      7.82064     15.03731        -0.545680     -0.736954     -0.171786
O       9.81861      7.76337      6.74099        -0.824275      0.466635     -0.231526
O       9.85000      7.80023     10.85608        -0.431049     -0.163484      0.140565
O       9.77485     11.72764      2.68823        -0.032305     -0.511515     -0.641552
O       9.69348     11.68341     14.94810        -0.044303      0.077405      0.100648
O       9.79288     11.63624      6.53647        -0.205762      0.600833      0.735722
O       9.69422     11.60495     10.86720         0.079620      0.771802     -0.234870
