  # total energy = -7882.75869188 
CRSYTAL
PRIMVEC
    15.6080000000000005    0.0000000000000000    0.0000000000000000
     0.0000000000000000   15.6080000000000005    0.0000000000000000
     0.0000000000000000    0.0000000000000000   16.6239999999999988
PRESSURE
0.329802 -0.098105 0.978479 -0.11101 0.321107 -0.058417
PRIMCOORD
320 1
Pb       3.88964      3.79708      4.10017        -0.056474      0.533174      0.021503
Pb       3.95061      3.91331     16.60396        -0.413111      0.114913      0.327111
Pb       3.90759     15.54894      4.02681         0.172593     -0.171849      0.492487
Pb       3.92245     15.57235     16.53274        -0.219511      0.026720      0.390169
Pb       0.02445      3.90754      4.08267         0.217651      0.099281      0.076866
Pb       0.00698      3.82855     16.60160         0.287730     -0.275355      0.325594
Pb      15.60016     15.49423      4.06842         0.103491      0.245315      0.372522
Pb      15.59062     15.59459     16.54566         0.068630      0.484949      0.268161
Pb       3.88836      3.82173      8.21126         0.062224      0.237134     -0.000258
Pb       3.85699     15.49246      8.14431         0.363085      0.314717      0.487170
Pb      15.51008      3.87669      8.26016         0.468455     -0.193948      0.319010
Pb      15.50162     15.52969      8.25041         0.462048      0.183561      0.278232
Pb       3.79816      3.82419     12.45912         0.301242      0.110253     -0.042871
Pb       3.90906      0.01706     12.55430        -0.328139     -0.277853     -0.831842
Pb       0.04762      4.05021     12.55825        -0.121802     -0.423807     -0.320053
Pb       0.07791      0.03234     12.56806        -0.125712      0.099452     -0.323963
Pb       3.90321      7.82385      3.98115        -0.124899     -0.072334      0.785584
Pb       3.91504      7.79016     16.52487        -0.314995      0.073775      0.859161
Pb      15.46435      7.81091      4.08932         1.202942     -0.136284      1.343057
Pb      15.58314      7.72972     16.52318         0.175192      0.036828      0.350924
Pb       3.75450      7.76139      8.30249         0.921114     -0.485357      0.057401
Pb      15.41677      7.69915      8.45846         0.388016      0.234502     -0.455737
Pb       3.92660      7.73978     12.34733        -0.216083      0.237827      0.597215
Pb      15.51733      7.78006     12.43605         0.680725      0.410955      0.157610
Pb       3.86168     11.71219      4.04179        -0.285729     -0.392343      0.281707
Pb       3.82203     11.74984      0.00794         0.208189     -0.305452      0.441707
Pb      15.53473     11.62350      4.03239         0.445193      0.018699      0.700886
Pb      15.56695     11.65903     16.53325         0.140840      0.255379      0.342656
Pb       3.86867     11.78455      8.35451         0.567617     -0.544121     -0.259275
Pb       0.05653     11.70554      8.24416        -0.506276      0.104594      0.159281
Pb       3.83575     11.63113     12.38674         0.487253      0.441877      0.275525
Pb       0.01388     11.76807     12.49450        -0.010523     -0.142296     -0.202322
Pb       7.78768      3.80213      4.11099        -0.043228      0.305769      0.510199
Pb       7.81767      3.92920     16.54881        -0.222647     -0.141983      0.208826
Pb       7.77868     15.59124      4.15660         0.101488     -0.281402      0.618042
Pb       7.78062      0.07470     16.55781         0.049089     -0.495805      0.057829
Pb       7.81722      3.79168      8.32807        -0.220252      0.519292     -0.811780
Pb       7.79147      0.03315      8.15332        -0.027026     -0.202221      0.356157
Pb       7.85460      3.77428     12.42337        -0.308335      0.288980      0.964475
Pb       7.73162     15.57128     12.34755        -0.093077     -0.379753      0.431792
Pb       7.89152      7.80361      4.16302        -0.440491      0.055763      0.011546
Pb       7.61183      7.66317     16.60611         0.491704      0.574225      0.496474
Pb       7.79136      7.72487      8.19062        -0.390637     -0.015884      0.566621
Pb       7.67291      7.83349     12.40929         0.107387     -0.090826      0.343835
Pb       7.80614     11.70039      4.12070         1.048644     -0.293423      0.565181
Pb       7.72534     11.81070     16.54304         0.415382     -0.681655      0.638430
Pb       7.90860     11.72499      8.32582        -0.664344     -0.406138      0.616529
Pb       7.78675     11.75199     12.40315        -0.325191     -0.241172      0.022587
Pb      11.77897      3.78046      4.15945        -0.248443      0.395640     -0.087901
Pb      11.66572      3.94733      0.12594         0.541910     -0.631168      0.257851
Pb      11.65168     15.47093      4.07095         0.750291      0.576875      1.502807
Pb      11.66386     15.59254     16.50551         0.429866     -0.659343      0.726394
Pb      11.71525      3.98763      8.37071        -0.446359     -0.602077      0.240488
Pb      11.77585      0.09989      8.34725        -0.406048     -0.240710      0.291864
Pb      11.71162      3.88033     12.37764        -0.157432     -0.068655      0.445210
Pb      11.48448      0.08668     12.40389         0.630295      0.133296      0.154341
Pb      11.74098      7.95465      4.24590        -0.046731     -0.612140      0.013424
Pb      11.71488      7.79268     16.58333        -0.412404     -0.159870      0.706876
Pb      11.70706      7.70116      8.37541        -0.265188      0.438404      0.018132
Pb      11.61887      7.95800     12.46729        -0.088559     -0.505412      0.750617
Pb      11.87560     11.59483      4.12676        -0.423740      0.088227      0.111731
Pb      11.54243     11.61649     16.54827         0.065165      1.012027      0.428248
Pb      11.69202     11.81681      8.47661         0.609933      0.028291     -0.390598
Pb      11.63319     11.68849     12.45307        -0.375182      0.156424      0.451474
Ti       1.98934      1.89527      2.29029        -0.400478      0.580557     -1.679970
Ti       2.05248      1.94002     14.70023        -2.246044      0.565484     -0.628061
Ti       1.87570     13.63912      2.20100         1.025882     -0.468065      0.133646
Ti       1.91198     13.64776     14.67899         0.014464      0.338632     -1.188884
Ti      13.72667      1.86400      2.29396        -0.130778      1.147310     -1.138192
Ti      13.68930      1.93525     14.66647         0.791454     -0.087133      0.485999
Ti      13.63990     13.65286      2.15153         0.024999     -0.608055     -1.261827
Ti      13.63766     13.63047     14.67269        -0.099935      0.193477     -0.183064
Ti       1.90516      1.90004      6.35725         0.091968      0.281147      0.214816
Ti       1.95877     13.53889      6.25111        -0.340492      0.155891     -0.052900
Ti      13.64091      1.93488      6.42141        -0.379823     -0.035142      0.466754
Ti      13.59263     13.63760      6.39269        -0.118068     -0.383288      0.341078
Ti       1.89614      1.92043     10.54256         0.728345     -0.369649      1.454608
Ti       1.91164     13.65246     10.47561         0.324823      0.550453      1.446025
Ti      13.69192      1.98643     10.56953         0.125952     -0.037865     -0.348171
Ti      13.58026     13.73084     10.67684         0.412101      0.443021     -1.352585
Ti       1.94162      5.85421      2.21289        -0.067922     -0.603549      0.108591
Ti       1.87232      5.93319     14.68781         0.743710     -0.837116     -0.356819
Ti      13.66990      5.84180      2.27437        -0.411179     -0.813221      0.650993
Ti      13.58094      5.76027     14.71329         0.410815      0.132486      0.314171
Ti       1.77858      5.81280      6.39234         1.319123     -0.379266     -0.191903
Ti      13.53464      5.80497      6.39083         0.588690      0.617032     -0.510337
Ti       1.94074      5.81634     10.53599        -0.294643      0.808922      0.013158
Ti      13.56961      5.98335     10.68081        -0.127744     -1.554604      0.937885
Ti       1.90763      9.70677      2.21231         1.019467      0.334933     -1.089354
Ti       1.92431      9.78810     14.67278         0.538615     -0.041806      0.363983
Ti      13.68602      9.65955      2.14173         0.209483      0.783036      1.726947
Ti      13.58512      9.74150     14.76847         0.495225      0.203470     -0.812218
Ti       1.99249      9.64531      6.50586        -0.348703      0.147552     -1.532745
Ti      13.69758      9.76129      6.46718        -0.743561     -0.130728     -0.498464
Ti       1.94037      9.78275     10.50418        -0.533867     -0.676975      0.694561
Ti      13.61333      9.86566     10.63021         0.658931     -0.318677     -1.226677
Ti       5.93213      1.89692      2.19221        -1.390332      0.390968     -0.018614
Ti       5.94561      1.89075     14.64736        -0.166882      0.283450      0.336918
Ti       5.92779     13.61421      2.26630        -0.702236     -0.431261     -0.519728
Ti       5.81552     13.53172     14.67937         0.294659      0.696222      0.881118
Ti       5.80639      1.86378      6.33135         0.850919      0.479958      0.937581
Ti       5.86701     13.46117      6.34522         0.264172      1.178259      1.947121
Ti       5.80196      1.88549     10.52076        -0.602187      0.057541     -0.799723
Ti       5.78974     13.65204     10.50775         0.286817     -0.897702     -0.634098
Ti       5.85810      5.83039      2.28524        -0.409247     -0.133598      0.307438
Ti       5.80363      5.80498     14.71213        -0.464181     -0.416502     -0.332029
Ti       5.75036      5.79908      6.26917         0.301808     -0.156510      0.305001
Ti       5.81190      5.68188     10.58312         0.015943      0.706531      0.343435
Ti       5.95136      9.76441      2.24004        -0.639585     -0.283184     -1.080512
Ti       5.76822      9.71272     14.68007         0.702972      0.230035      0.085746
Ti       5.90467      9.67394      6.37378        -0.147571     -0.348581      2.051308
Ti       5.84331      9.70485     10.58025         0.654567      0.371450     -1.810845
Ti       9.75686      1.90049      2.24267         1.282529      0.647583     -0.226180
Ti       9.88410      1.94180     14.82298        -1.076237      0.684267     -0.737426
Ti       9.81375     13.60688      2.30366        -0.200201     -0.688577     -1.406820
Ti       9.71719     13.70413     14.63756        -0.169740     -1.512381     -0.217364
Ti       9.80907      1.99508      6.41126        -0.335030      0.102729      0.330858
Ti       9.74822     13.66157      6.43184         0.334082      0.351994     -0.496129
Ti       9.69726      1.96581     10.57853         0.690340     -0.677134     -1.491130
Ti       9.75903     13.59337     10.52790        -1.616412      0.737787     -0.651315
Ti       9.74883      5.83415      2.25299         0.511333     -0.084204      0.879547
Ti       9.80389      5.85549     14.79124        -0.860031     -0.806282     -0.789170
Ti       9.70008      5.88251      6.30329        -0.048229     -1.441582      1.350043
Ti       9.64287      5.86972     10.74249         0.138763     -0.041811     -1.154641
Ti       9.84495      9.66421      2.14606        -1.160764      0.489425     -0.653782
Ti       9.64351      9.68843     14.69550         0.031314      0.562016      0.269525
Ti       9.87176      9.76042      6.48538        -0.566203      0.490880     -0.374836
Ti       9.75553      9.72094     10.52082        -1.227952     -0.344170     -0.550173
O       1.88250      2.01488      0.47164         0.382646     -0.585594      0.098776
O       1.94256      1.86335     12.86419         0.229395      0.132983      0.746655
O       1.98855     13.69617      0.44444        -0.068914     -0.175084     -0.882341
O       1.84266     13.77318     12.84875         0.075978     -0.544079      0.951034
O      13.94498      2.05938      0.50919        -1.055365     -0.833596      0.906892
O      13.73346      1.87525     12.92491        -0.226154      0.349203     -0.640915
O      13.64862     13.63540      0.33207        -0.028136      0.135378      1.069257
O      13.76540     13.63444     12.84950        -0.441512     -0.037645      0.553153
O       1.99019      1.80782      4.59863        -0.148314      0.276884     -0.499556
O       1.92103     13.48939      4.43800        -0.124015      0.614095      1.190919
O      13.58825      1.84956      4.67708         0.302511      0.308221     -0.783057
O      13.60014     13.59772      4.61326         0.278163      0.066623      0.247851
O       1.87691      1.93570      8.85652         0.264252      0.290551     -2.472687
O       2.12054     13.50923      8.72492        -0.342220      0.287204     -0.239196
O      13.57133      2.00891      8.75654         0.492689     -0.359295      0.708555
O      13.41180     13.61421      8.84685         0.569838      0.396724      0.566266
O       1.80769      5.71725      0.45548         0.153787      0.816841     -0.809214
O       1.82292      6.05742     12.89685         0.360307     -0.312206      0.463100
O      13.71827      5.79751      0.53989         0.132224      0.226357     -1.218309
O      13.55484      5.82336     12.93504        -0.037499      0.077460      0.216402
O       2.06677      5.79611      4.63436        -0.623289      0.131897      0.347160
O      13.55885      5.93356      4.63011         0.012092     -0.284089      0.222612
O       1.81908      5.69319      8.78346         0.176170      0.183646     -0.502570
O      13.49161      6.02083      8.95631         0.623058     -0.434082     -1.512253
O       2.01551      9.80959      0.40633        -0.461049     -0.220715      0.922308
O       2.00195      9.81152     12.91407        -0.152691     -0.233796     -0.399092
O      13.78745      9.69550      0.42599        -0.139142     -0.086276     -1.287898
O      13.76220      9.77485     12.99102        -0.724461     -0.052831     -0.155660
O       1.96531      9.60021      4.71565         0.013771      0.238868      0.288926
O      13.61017      9.72797      4.61200        -0.057253      0.225718      0.619474
O       1.76162      9.86293      8.75685         0.595377      0.024822     -0.614467
O      13.57102      9.67488      8.82729         0.266629      0.421368      0.793268
O       5.87348      1.89254      0.42792         0.022528     -0.141833      0.141450
O       5.78416      1.78231     12.88691         0.126821      0.344723      0.250326
O       5.89138     13.41779      0.50012        -0.227485      0.644154      0.025459
O       5.91020     13.61205     12.95965        -0.058640      0.149617     -0.774437
O       5.89586      1.81487      4.59337        -0.175264      0.316630     -1.616977
O       6.02677     13.61566      4.64951         0.052383     -0.105705     -1.806971
O       5.88567      1.93752      8.72114        -0.102361      0.008386      0.295310
O       5.85356     13.61106      8.68782        -0.596044     -0.098521      0.750745
O       5.82935      5.70757      0.50174         0.299965      0.382228     -0.516788
O       5.63341      5.83474     12.96940         0.569301     -0.073290      0.124954
O       5.79960      5.86083      4.47437        -0.252254     -0.234853      0.153588
O       5.82437      5.73632      8.86249         0.011237     -0.152205     -0.800463
O       5.88079      9.82186      0.42870         0.227029     -0.214341      1.363653
O       5.77416      9.61390     12.89865         0.188947      0.285227      0.163404
O       5.89622      9.55319      4.65934         0.085270      0.524288     -1.452721
O       5.89962      9.65327      8.78035        -0.182780      0.159059      0.915560
O       9.84343      1.78389      0.42643        -0.297299      0.183082      0.950235
O       9.80359      2.01456     13.06240         0.053824     -0.385574     -1.158007
O       9.93200     13.73567      0.49314        -0.423083      0.157242      0.764573
O       9.61876     13.42475     12.84015         0.346360      0.842170      0.849222
O       9.93160      2.11508      4.64993        -0.549823     -0.306834     -0.610523
O       9.77691     13.66480      4.57027        -0.037515     -0.492396      0.676696
O       9.81821      1.91543      8.76280        -0.853536      0.078106      1.267924
O       9.67589     13.79578      8.74695         0.437016     -0.360531      0.351156
O       9.57636      6.03472      0.50637         0.492777     -0.727481     -0.766497
O       9.72677      5.60018     13.04427         0.255324      0.651672      0.141050
O       9.91000      5.92828      4.59196        -0.538015     -0.561094     -0.684273
O       9.54628      5.92781      8.96879         0.332358     -0.142504      0.060490
O       9.70117      9.64160      0.33842         0.697480      0.036732      1.212316
O       9.76824      9.77689     12.91173        -0.003577      0.165789      0.715987
O       9.87145      9.87901      4.67209         0.031201     -0.444371      0.382933
O       9.76326      9.46981      8.74571         0.008432      0.425897      0.209501
O       3.91181      1.78569      2.52729         0.592897      0.467494      0.078303
O       3.84152      1.93700     14.98872         1.024109     -0.122696      0.116374
O       3.91390     13.50523      2.49255         0.419224      0.289694      0.250308
O       3.93599     13.60303     15.00773        -0.617810      0.600222     -0.004805
O       0.07564      1.78373      2.60280        -0.697172      0.201043      0.558738
O       0.01708      1.96753     15.03821         0.114371     -0.231995     -0.370974
O      15.59485     13.63712      2.40009        -0.302480      0.250536      0.467426
O      15.60692     13.61079     14.95917        -0.003635     -0.209576      0.199725
O       3.89871      1.92539      6.64168        -0.411683     -0.034429      0.165039
O       3.90180     13.62387      6.54312        -0.112085      0.106816      0.233424
O      15.55436      2.01393      6.71804         0.203612     -0.623049     -0.019778
O       0.05162     13.61256      6.71155        -0.432826      0.448987     -0.105748
O       3.91519      1.93486     10.84761        -0.330689      0.154060      0.269972
O       3.89660     13.61745     10.95196         0.019481     -0.269575     -0.496667
O       0.04784      1.93524     10.80075        -1.106688      0.041879      0.443665
O      15.49143     13.65114     10.67509         1.169821     -0.260977      0.285887
O       3.87841      5.82836      2.48199         0.218301     -0.010900      0.064559
O       3.82577      5.81297     15.05279         0.249200      0.116590      0.135469
O       0.03100      5.92714      2.67743        -0.457140     -0.722730     -0.100821
O      15.52614      5.85353     14.87814         0.035021      0.728652      0.388164
O       3.86165      5.70218      6.78072        -0.336097      0.763557     -0.197124
O      15.48055      5.78581      6.68573         0.344391     -0.011748      0.265326
O       3.88798      5.91578     10.97254        -0.388356     -0.724254     -0.786751
O      15.57116      5.83930     10.96558        -0.819469      0.422112     -0.252744
O       3.93642      9.82244      2.55217         0.025871     -0.380971     -0.082041
O       3.97925      9.68836     15.12124        -0.822094      0.513391     -0.568898
O       0.03886      9.72774      2.61580        -0.772168     -0.228176     -0.518558
O       0.05907      9.69999     14.99264        -0.673268      0.175407      0.113802
O       3.86261      9.57497      6.78748        -0.209247      0.464401     -0.004191
O      15.49406      9.83695      6.69142         1.183743     -0.233947      0.399637
O       3.92179      9.79645     10.78535        -0.956490     -0.280475     -0.085775
O      15.60265      9.93367     10.89482        -0.636650     -0.555085     -0.086218
O       7.80990      1.94942      2.50658         0.696186     -0.301228      0.064587
O       7.86810      1.94264     14.98836        -1.072617     -0.227703      0.235679
O       7.86261     13.68233      2.52008         0.499095     -0.255487      0.137878
O       7.75479     13.66537     15.15147         0.388921      0.390793     -0.677434
O       7.78910      2.00544      6.61900         0.596903     -0.029433      0.323090
O       7.84942     13.49182      6.80171        -0.540706      0.265005     -0.797166
O       7.71249      1.90055     10.94003         0.909031      0.122678     -0.312138
O       7.78829     13.51956     10.85904        -0.467828      0.542791     -0.097153
O       7.79105      5.71611      2.61373         0.151494      0.558017     -0.044154
O       7.74766      5.79619     15.04318         0.532503      0.058204     -0.050903
O       7.68053      5.70515      6.65625         1.704557      0.629645     -0.253630
O       7.70871      5.76178     11.03097         0.319232      0.145549      0.186664
O       7.89224      9.60714      2.58385        -0.152161      0.744885     -0.071038
O       7.80544      9.70605     15.07121        -0.084995     -0.303872     -0.736108
O       7.81593      9.75544      6.74403         0.244905     -0.105109     -0.415381
O       7.88558      9.76700     10.89947        -0.859077     -0.279081      0.102804
O      11.79504      2.02675      2.58604        -0.527522     -0.492139     -0.603699
O      11.74298      1.86525     15.05777         0.666014      0.143584      0.028990
O      11.78359     13.67576      2.55094        -0.641194     -0.312260     -0.023022
O      11.71982     13.64192     14.89455        -0.221069      0.206088     -0.129698
O      11.68127      1.98740      6.86194         0.528212     -0.482088     -0.606174
O      11.66686     13.74665      6.78403         0.279602     -0.397890     -0.475387
O      11.65235      1.93794     10.87142        -0.164292     -0.290949      0.279448
O      11.56347     13.70296     10.89922         1.168284      0.131550      0.441917
O      11.75064      5.79392      2.49449        -0.436577      0.106628     -0.289562
O      11.68582      5.72202     15.27539         0.123190      0.450874     -0.589247
O      11.69434      5.81029      6.82528        -0.624251      0.400474     -0.163610
O      11.57930      5.79287     10.90974         1.097208      0.313617      0.276829
O      11.80478      9.68868      2.52347        -0.728884      0.025727     -0.398177
O      11.69625      9.85479     15.05295         0.006554     -0.583231     -0.393451
O      11.72195      9.76906      6.75292        -0.254415     -0.265053     -0.021698
O      11.59070      9.71402     10.94238         1.809354      0.063145      0.044976
O       1.91082      3.87280      2.44631         0.116283     -0.541013      1.134968
O       1.86394      3.98077     14.85424         0.354925     -0.602614     -0.057723
O       2.04885     15.55819      2.57691        -0.624831     -0.654597     -0.196293
O       1.85791     15.56828     14.92559         0.643659      0.557973      0.459328
O      13.76226      3.88772      2.62654         0.212416     -0.276413      0.122982
O      13.66318      3.85895     15.09232        -0.414059      0.571065     -0.489161
O      13.64997     15.55089      2.59559         0.228342      0.141365     -0.422472
O      13.75051      0.00933     15.01796        -0.301566     -0.666459     -0.134439
O       1.86006      3.84388      6.63806         0.089806     -0.002868      0.312035
O       1.94883      0.01824      6.80201        -0.410072     -0.802196     -0.604030
O      13.58196      3.88644      6.78272        -0.015616      0.288492     -0.327785
O      13.65069     15.59706      6.79383         0.160364     -0.172200     -0.233856
O       1.94278      4.00058     10.90768         0.098770     -1.628599      0.562125
O       2.07329     15.55288     10.79400        -0.662719     -0.068400     -0.052638
O      13.61797      3.86847     10.88917         0.170553      0.546601      0.129833
O      13.63442      0.06547     10.86677        -0.329259     -0.763534      0.051105
O       1.87790      7.73680      2.50469         0.550574      1.189176     -0.155345
O       2.05501      7.92298     15.06634        -0.637340     -1.552420     -0.155544
O      13.72133      7.79388      2.65316        -0.603623      0.268731     -1.066045
O      13.49679      7.74977     15.13813         0.734871      0.198583     -0.739513
O       1.76731      7.73168      6.88151         0.308511      0.146602     -0.109472
O      13.64035      7.78838      6.82511        -0.185341     -0.006982     -0.316253
O       1.88654      7.78734     10.63581         0.034016      1.201927      0.573828
O      13.61132      7.87057     10.95749         0.038477     -0.068923      0.060635
O       1.88702     11.63443      2.50467         0.035571      0.220422      0.097667
O       2.02142     11.77039     14.98932        -0.327975     -0.893274     -0.060283
O      13.71665     11.67046      2.51238        -0.252312     -0.073124     -0.241418
O      13.66886     11.67507     15.06132         0.101908     -0.035617     -0.275732
O       1.94118     11.68547      6.65101         0.243719     -0.114082      0.156514
O      13.63200     11.74874      6.75509        -0.335970     -0.126659     -0.067908
O       1.97883     11.72351     10.97822        -0.290408      0.109136     -0.718915
O      13.43279     11.72237     10.88865         0.325651     -0.164447      0.076192
O       5.76461      3.81615      2.53745         0.339475     -0.327877      0.143360
O       5.80529      3.79885     15.11213         0.202718      0.508176     -0.586781
O       5.90602     15.48416      2.56582        -0.111021      1.013140     -0.255321
O       5.78451      0.03114     15.06250         0.312526     -0.613350     -0.012308
O       5.88105      3.89078      6.59843        -0.727419     -0.644196      0.137663
O       5.97175     15.55700      6.59240        -0.432906     -0.174186      0.307511
O       5.82325      3.79560     10.94923        -0.182250      0.376797     -0.129471
O       5.77534     15.52959     10.80880         0.470999      0.323528      0.248497
O       5.89333      7.80499      2.50505         0.042052     -0.151231     -0.281685
O       5.81938      7.71806     15.05079         0.085702      0.359555     -0.045192
O       5.81984      7.72601      6.67226         0.014414     -0.097123      0.181711
O       5.90355      7.77979     10.86370        -0.210936     -0.199266      0.212734
O       5.98137     11.69173      2.79260        -0.289136     -0.646116     -0.987025
O       5.83097     11.65563     15.01506         0.284211     -0.164543     -0.415255
O       5.75670     11.61355      6.71969         0.126624      0.027239     -0.414034
O       5.85082     11.67806     10.90757        -0.177831     -0.067041     -0.086860
O       9.77492      3.90933      2.54958        -0.035217     -0.681031     -0.343101
O       9.81671      3.82571     15.11717        -0.129305      0.870105      0.760879
O       9.86788      0.06364      2.72391        -0.919904     -0.223142     -1.054680
O       9.72499     15.55716     14.97174         0.225228      0.201704      0.044684
O       9.87056      3.89948      6.83466        -0.784195      0.555670     -0.307736
O       9.65663     15.59621      6.61336         0.108213      0.068624     -0.014022
O       9.70388      3.83817     10.95347        -0.258177     -0.009817     -0.283791
O       9.58801     15.60229     10.95793         0.698009      0.261800     -0.124262
O       9.79144      7.76913      2.62854         0.170448      0.437119     -0.099713
O       9.97080      7.75706     14.94087        -0.636619      0.285157     -0.294249
O       9.78562      7.70535      6.64423        -0.218565      1.021983      0.052120
O       9.74786      7.75836     11.11934        -0.440624      0.043643     -0.473354
O       9.85476     11.64124      2.38857        -0.114997      0.267650      0.351393
O       9.71011     11.80433     15.08128         0.091003     -0.990305     -0.167500
O       9.82354     11.71465      6.99317         0.054676     -0.461359     -0.991820
O       9.80540     11.65531     10.65376         0.069863      0.119160      0.219851
