  # total energy = -7880.89081323 
CRSYTAL
PRIMVEC
    15.6080000000000005    0.0000000000000000    0.0000000000000000
     0.0000000000000000   15.6080000000000005    0.0000000000000000
     0.0000000000000000    0.0000000000000000   16.6239999999999988
PRESSURE
-0.321046 -0.351073 0.849122 -0.126623 -0.194275 -0.049111
PRIMCOORD
320 1
Pb       4.03745      4.01894      4.24701        -0.726827     -0.283523     -0.273363
Pb       3.96223      4.00510     16.49306         0.006350     -0.632237      0.812815
Pb       3.92644      0.11996      4.03098        -0.144255     -0.966590     -0.027958
Pb       3.83253      0.03050     16.43517         0.137689     -0.329272      0.923442
Pb       0.09141      3.85003      4.18008         0.037871      0.076430     -0.391774
Pb      15.58963      3.75888     16.60771        -0.202450      0.412524      0.241846
Pb      15.44904      0.02891      4.09258         0.413745     -0.449576      0.473847
Pb      15.52510      0.03866     16.57741         0.435618     -0.295096     -0.104096
Pb       3.80256      3.80679      8.24015         0.474193      0.461306     -0.045235
Pb       3.95295     15.55397      8.09387        -0.985556      0.235220      1.089328
Pb      15.53310      3.88805      8.35113        -0.007468     -0.041560     -0.551933
Pb      15.60699     15.55130      8.23620         0.105212     -0.054608      0.126655
Pb       3.72854      3.89765     12.62132         0.516281      0.192820     -0.330663
Pb       3.88820     15.50576     12.54674        -0.048268      0.316759     -0.208651
Pb       0.00106      3.98783     12.62393        -0.062118     -0.292464     -0.289610
Pb       0.17722     15.55482     12.45919        -0.500544      0.126450      0.100073
Pb       3.81915      7.89374      4.02615         0.218242     -0.370376      0.246663
Pb       3.97153      7.69041     16.58534        -0.223240      0.568556     -0.117763
Pb       0.09965      7.84638      4.16640        -0.706466     -0.378799     -0.417506
Pb      15.50292      7.73702     16.59109         0.368854      0.507507      0.362857
Pb       3.82860      7.72738      8.32951        -0.202314      0.687034     -0.237240
Pb      15.34729      7.68495      8.51926         0.261558      0.587046     -0.491295
Pb       3.98378      7.81882     12.35586        -0.124646     -0.331937      0.488561
Pb      15.42090      7.75497     12.51782         0.715236      0.366334      0.249212
Pb       3.81018     11.68422      4.04066         0.365136      0.653431     -0.219953
Pb       3.94617     11.64051     16.57764        -0.412695     -0.021611      0.259161
Pb      15.56529     11.68116      4.11553        -0.082932      0.440063     -0.175870
Pb      15.50980     11.75426     16.56547         0.651418      0.095890      0.416084
Pb       3.85224     11.88040      8.27952         0.183424     -0.529929     -0.521614
Pb       0.10683     11.63956      8.12015        -0.735493      0.167979      0.834094
Pb       3.98034     11.57436     12.22918        -0.484409      0.127474      0.776421
Pb       0.11697     11.62654     12.42360         0.420162      0.106727      0.008611
Pb       7.80565      3.66740      4.13202         0.026185      1.027850      0.390489
Pb       7.93043      3.97681     16.55338        -0.617043     -0.256046      0.416655
Pb       7.83341     15.47714      4.15501        -0.396458      0.153820     -0.681386
Pb       7.83995      0.13782     16.54753        -0.549578     -0.204308      0.291325
Pb       7.63586      3.78967      8.52870        -0.130315      0.017215     -0.737505
Pb       7.78768      0.02684      8.19595        -0.100972      0.202952      1.141196
Pb       7.79389      3.57416     12.52542        -0.366458      0.695843     -0.014307
Pb       7.75247     15.47765     12.46574         0.064443      0.056685     -0.514956
Pb       7.96491      7.83849      4.17569        -0.597784     -0.020939      0.029384
Pb       7.64455      7.78366     16.58385         0.350059      0.009577      0.204193
Pb       7.82060      7.83868      8.14623        -0.011801     -0.085343      0.205331
Pb       7.84075      7.63183     12.38600        -0.084858      0.367534     -0.359135
Pb       7.87934     11.60642      4.12811        -0.344399      0.163506     -0.477266
Pb       7.76994     11.85856     16.50094        -0.421253     -0.688784      0.782438
Pb       7.76098     11.70252      8.16415        -0.409586     -0.552839      0.450416
Pb       7.84055     11.57380     12.35197        -0.038370      0.430372     -0.187604
Pb      11.77109      3.70550      4.26906        -0.711983      0.481623     -0.425689
Pb      11.69979      4.10659      0.31398         0.146155     -0.126073     -1.046722
Pb      11.39072     15.47568      4.12720         0.579552      0.183129     -0.068955
Pb      11.69207     15.58435     16.50134         0.112692      0.037132      0.341496
Pb      11.66282      4.15214      8.43263        -0.060552     -0.581711     -0.626639
Pb      11.69573      0.20362      8.40906         0.103733     -0.485934     -0.153453
Pb      11.83687      3.75605     12.50402        -0.293517      0.322497      0.055926
Pb      11.53463     15.52938     12.36410         0.935844     -0.326568      0.359784
Pb      11.59574      7.69559      4.11577         0.549170      0.172988     -0.078755
Pb      11.70387      7.87327      0.03380        -0.108058     -0.597326     -0.116877
Pb      11.64985      7.80771      8.34873         0.053049      0.060426     -0.154260
Pb      11.47341      8.02356     12.50503         0.349865     -0.578306     -0.381519
Pb      11.86539     11.32896      4.17433        -0.874094      0.936252      0.618624
Pb      11.72581     11.63088     16.59778         0.099297      0.441419      0.463016
Pb      11.79281     11.91025      8.41570         0.267882     -0.641397     -0.037522
Pb      11.82973     11.78021     12.44289        -0.885661      0.232757      0.017403
Ti       1.90323      1.86331      2.28017         0.902869      0.891042     -1.126832
Ti       1.89251      1.96385     14.80292         0.654016     -0.670473     -0.050146
Ti       1.80775     13.65275      2.20709         1.370020     -0.610926      0.025162
Ti       1.95258     13.54698     14.63533         0.274937      1.183800     -0.229988
Ti      13.63397      1.88749      2.21819        -0.430594      0.106323     -0.259498
Ti      13.54765      1.98636     14.67607         1.096575      0.168295     -0.422353
Ti      13.52256     13.59732      2.25918         0.388458     -0.153936      0.254927
Ti      13.61314     13.71580     14.59184        -0.644087      0.149520     -1.054500
Ti       1.86604      2.00972      6.44437        -0.118504     -0.345242     -0.812290
Ti       1.84123     13.71639      6.23522         0.525090      0.190690      0.423111
Ti      13.56451      1.93109      6.37851         0.682080     -0.029429     -0.238925
Ti      13.59562     13.64603      6.30804         0.209846     -0.495087     -0.180567
Ti       1.92156      2.02460     10.54307         0.699843     -0.504172      0.462073
Ti       1.98708     13.72584     10.51568        -0.069540     -0.615857     -0.246359
Ti      13.72910      1.87789     10.56754        -0.326652     -0.592921      0.754255
Ti      13.71671     13.58752     10.48166        -0.432251      0.975521      2.193031
Ti       1.89146      5.82738      2.12050         0.475169     -0.750710      0.590348
Ti       1.87098      5.90552     14.74939         0.488504      0.027202     -0.690007
Ti      13.65156      5.80821      2.22153         0.634761      0.147372      0.163920
Ti      13.57556      5.93300     14.72753        -0.284207     -1.004883      0.324138
Ti       1.84151      5.98652      6.26665         0.642402     -0.501037      2.279440
Ti      13.59854      5.79664      6.27451         0.134240      0.186008      1.046168
Ti       1.87085      5.93636     10.62231         1.253930     -0.446838      0.482162
Ti      13.61575      5.83125     10.60216        -0.639825      0.011758      0.033145
Ti       1.87203      9.72832      2.14959         0.666813      1.102887     -0.077499
Ti       1.89622      9.74902     14.71792         0.428509      0.010303     -0.308628
Ti      13.73965      9.65376      2.18686        -1.105379      0.149189      0.456598
Ti      13.61513      9.82386     14.67693         0.843050     -1.162188     -0.471014
Ti       1.85773      9.77410      6.25841         0.985550     -0.343075      1.006118
Ti      13.58095      9.66464      6.49873         0.622497      0.762450     -0.376424
Ti       1.93517      9.66436     10.50613         0.171778      0.551043     -0.013683
Ti      13.67059      9.76689     10.69606        -0.725998     -0.144707     -2.374038
Ti       5.83367      1.98045      2.19380        -0.328178      0.049502     -1.159156
Ti       5.83295      1.98092     14.69467        -0.522145     -0.106462     -0.316852
Ti       5.82771     13.67265      2.09815        -1.213594     -0.052121      1.218039
Ti       5.83912     13.65989     14.57430        -0.465769      0.036956      0.645489
Ti       5.89498      1.87306      6.29004        -0.581613      1.962678     -0.013346
Ti       5.84244     13.67232      6.27478        -0.754582     -1.381392     -0.085883
Ti       5.71718      1.85055     10.60647         0.528257      0.449401     -0.452045
Ti       5.79785     13.61683     10.46865         0.542017     -0.210697      1.009249
Ti       5.84129      5.88158      2.32924         0.042283     -0.761618     -0.767880
Ti       5.83657      5.89341     14.66750        -0.355690     -0.738033      0.203196
Ti       5.77703      5.89408      6.36964         0.603203     -1.297244     -0.478356
Ti       5.83218      5.71207     10.60803        -0.299384     -0.334384      0.489919
Ti       5.81930      9.73458      2.23614         0.349375      0.489011      1.071590
Ti       5.92028      9.77778     14.59616        -1.378424     -0.119265      1.318063
Ti       5.81304      9.70992      6.29773        -0.762376      0.715407      0.939684
Ti       5.95642      9.64778     10.41656        -0.446715     -0.142616      0.542488
Ti       9.77979      1.99549      2.18352        -0.697509     -0.156436      0.140615
Ti       9.78357      1.92748     14.74874        -0.346743      0.798859     -0.169957
Ti       9.66634     13.65250      2.05798         0.134690     -0.431537      0.870519
Ti       9.73181     13.62076     14.69447         0.496292      0.293867     -0.943915
Ti       9.74928      1.92884      6.44335        -0.375867      0.915008     -0.951494
Ti       9.70442     13.63109      6.46610         1.079290     -0.146634      0.484592
Ti       9.75762      1.92139     10.54798        -0.541693     -0.526168      0.567875
Ti       9.72186     13.61343     10.46215         0.395530     -0.090671      0.777326
Ti       9.73048      5.83421      2.26472        -0.642180     -1.220875      0.669269
Ti       9.71988      5.89764     14.68096         0.276907     -0.600264      1.215501
Ti       9.66464      5.77645      6.31484        -0.214585     -0.276851     -0.406055
Ti       9.78124      5.68664     10.62487        -0.638043      0.906416     -0.303843
Ti       9.75550      9.76770      2.11729        -0.377225      0.154172      3.691870
Ti       9.75188      9.78068     14.70601        -0.335007     -0.956517     -0.296970
Ti       9.81281      9.81850      6.33304        -0.546776     -0.744241      0.354472
Ti       9.77796      9.80289     10.36979        -0.307946     -0.176234      1.578124
O       1.89297      1.84014      0.44978        -0.208490      0.141982      0.788459
O       1.96601      1.93755     13.03548        -0.242148     -0.242495     -1.173037
O       1.94727     13.47699      0.45845        -0.298657      0.658093     -0.816647
O       2.05396     13.74047     12.81406        -0.720048     -0.579022      0.963246
O      13.68763      1.88115      0.43002        -0.319836     -0.023907      0.043640
O      13.67750      2.01145     12.88001         0.023601      0.176629      0.764790
O      13.56893     13.35182      0.50064        -0.231296      0.561854     -0.832907
O      13.42226     13.69995     12.79875         0.810508     -0.454718      1.131730
O       1.70227      2.06165      4.65730         0.281281     -0.241598      0.027254
O       1.86246     13.73125      4.49068        -0.333157     -0.444064     -0.199361
O      13.58474      2.12678      4.53821         0.230095     -0.859763      0.904619
O      13.70947     13.61573      4.50881        -0.420001      0.012438      0.412326
O       1.81054      2.02727      8.78450         0.284545     -0.138359     -0.386723
O       1.94698     13.67550      8.72517        -0.064008     -0.148788      0.186314
O      13.66193      1.86452      8.77564        -0.247742      0.148118      0.115851
O      13.62061     13.64636      8.76745         0.161286      0.084638     -1.551576
O       2.01720      5.75225      0.32664        -0.126000      0.323481      0.315038
O       1.81834      5.72110     12.91776        -0.053036      0.304238      0.841456
O      13.61955      5.83317      0.41384        -0.101385      0.335940     -0.059240
O      13.63032      5.83937     12.92990         0.409141     -0.100501      0.404192
O       1.80494      6.04771      4.55705         0.045844     -0.546636     -1.020551
O      13.60575      5.90047      4.52464         0.103018     -0.230261      0.069802
O       1.99886      6.13659      8.88268        -0.533790     -0.471664     -0.545343
O      13.50987      5.83035      8.75294         0.323398     -0.169495      1.077929
O       1.82475      9.81341      0.39658         0.090203     -0.097737     -0.184374
O       1.75027      9.82117     12.92221         0.511178      0.055487      0.249064
O      13.70054      9.71718      0.40943        -0.474617      0.135760     -0.518934
O      13.62213      9.83979     12.85355        -0.101215     -0.554112     -0.128219
O       1.89073      9.78055      4.46194        -0.073707     -0.252327      0.751499
O      13.50738      9.72056      4.66785         0.618806     -0.488794      0.445980
O       1.90740      9.59687      8.74815        -0.089686      0.178305      0.153866
O      13.56221      9.71482      8.82058         0.156017     -0.320047      0.200825
O       5.73835      1.99362      0.34938         0.446448     -0.219888      1.324116
O       5.83448      1.86189     12.85542         0.338867     -0.154535      0.683094
O       5.81076     13.70261      0.34120         0.214498     -0.192613     -0.155657
O       5.82754     13.57967     12.80208         0.326110     -0.059298      0.231618
O       5.86168      1.86698      4.47298         0.140599      0.008506      0.811500
O       5.90334     13.60297      4.49922         0.126624      0.572836      1.053203
O       5.92889      1.85093      8.77332        -0.376260      0.402646      0.642524
O       5.72366     13.56802      8.72764         0.309810      0.162776     -0.653189
O       5.70228      5.82300      0.47666         0.021106      0.439471      0.138702
O       5.75283      5.90618     12.94891         0.663872      0.133451     -1.207905
O       5.85062      5.80102      4.60251        -0.595206      0.160675     -0.122193
O       5.91895      5.51768      8.85929        -0.274791      0.582975     -1.004565
O       5.79893      9.63158      0.50683        -0.008548      0.001505     -0.946783
O       5.83035      9.69932     12.86184         0.239346      0.099444      0.089142
O       5.74343      9.80020      4.53025         0.271858     -0.202822      0.346332
O       6.06206      9.64473      8.68725        -0.098613      0.245115     -1.000682
O       9.73868      1.89612      0.40778         0.185782      0.250807     -0.939295
O       9.60946      1.90430     12.98117         0.267776     -0.114865     -0.389902
O       9.50462     13.60095      0.31424         0.898606      0.398704      0.147664
O       9.77529     13.56787     12.90438        -0.284214      0.128688      0.081649
O       9.82513      1.93332      4.59944        -0.305929     -0.132039      0.526498
O       9.72694     13.69203      4.72964        -0.347251      0.296249     -1.414400
O       9.65370      1.84879      8.79112         0.472858      0.281351     -0.727414
O       9.80839     13.55353      8.70597        -0.119924      0.287889     -0.874579
O       9.66172      5.77928      0.50544         0.505526     -0.046246     -0.921458
O       9.67278      5.84536     12.95809         0.260642      0.175322     -1.165869
O       9.78352      5.73216      4.50547        -0.202491      0.458579      0.940120
O       9.72268      5.67818      8.80944         0.361934      0.168909      0.237239
O       9.75713      9.70458      0.45722         0.028465     -0.316690     -2.998763
O       9.83331      9.68150     12.90647        -0.528834      0.491477      0.878558
O       9.77887      9.66676      4.54928        -0.077090      0.313455     -0.429306
O       9.60721      9.76685      8.62688         0.456952     -0.192177     -0.392357
O       3.85095      1.92104      2.56331        -0.230589     -0.111907     -0.012501
O       3.85946      1.92202     15.09008         0.259315     -0.088275     -0.638295
O       3.83164     13.73938      2.52174         0.960987     -0.211790     -0.023854
O       3.86749     13.69754     14.77444         0.176250     -0.535872      0.692623
O      15.56139      1.82867      2.52157        -0.531010      0.708461      0.061402
O       0.00338      1.92751     15.10382        -1.180772      0.055271     -0.265583
O      15.54382     13.50383      2.38558        -0.605612      0.408632      0.528918
O      15.45906     13.54976     14.89542         0.342816     -0.173920     -0.013840
O       3.78594      1.93441      6.68319         0.324322     -0.339764     -0.179539
O       3.83616     13.68269      6.65357         0.390315      0.009604     -0.382570
O      15.50086      1.81847      6.78517        -0.211384      0.763716     -0.270861
O      15.55848     13.66685      6.69346        -0.172691      0.052496     -0.110032
O       3.90809      1.77648     10.90267        -0.966470      0.580124     -0.306984
O       3.92244     13.52688     10.74739        -0.189994     -0.101674      0.314510
O       0.05707      1.83368     10.85221        -0.269219      0.417937      0.196200
O       0.05706     13.65253     10.90225        -0.774590     -0.053825     -0.356225
O       3.78442      5.88511      2.70112         0.047753      0.227285     -0.515028
O       3.88558      5.80149     14.89335        -0.602367      0.389321      0.480583
O      15.59467      5.92456      2.50260         0.368624     -0.379403     -0.098760
O       0.00587      5.91372     15.15280        -0.492925     -0.913335     -0.825468
O       3.84280      5.72002      6.68804         0.092281      0.572290     -0.092575
O      15.55895      5.81928      6.63422        -0.030193      0.479789      0.253262
O       3.90486      5.83080     10.93872        -0.128953      0.880042     -0.085741
O      15.57613      5.92469     10.89974        -0.189097     -0.553162     -0.250526
O       3.88780      9.80263      2.54431        -0.546468     -0.503569     -0.374670
O       3.81876      9.71781     15.03958         0.525621      0.534311     -0.209229
O      15.56700      9.80729      2.52691         0.313148      0.072395      0.143424
O      15.53645      9.75756     14.94338        -0.774142      0.347161      0.226107
O       3.94244      9.78547      6.80206        -0.773174     -0.112362     -0.634670
O      15.59099      9.59964      6.73699         0.257487      0.255632     -0.458419
O       3.94089      9.43442     10.67515        -0.577500      1.160676      0.133218
O      15.53733      9.75024     10.78209         0.656020      0.198544      0.392411
O       7.78876      2.14990      2.42099        -0.532836     -0.614284     -0.063688
O       7.73762      2.01695     15.05671         0.708370     -0.421873     -0.277457
O       7.78708     13.69378      2.56192         0.191106     -0.265591     -0.256619
O       7.81538     13.64684     14.97492        -0.875024     -0.120663     -0.608544
O       7.75775      1.91384      6.63716         0.384657     -0.552819     -0.019084
O       7.75101     13.63803      6.83017         0.239354      0.458716     -1.028997
O       7.79603      1.97133     10.80284         0.001643     -0.186630      0.469577
O       7.83605     13.55367     10.81980        -0.759689      0.136765     -0.024688
O       7.70364      5.73843      2.44367         0.874631     -0.000839      0.406547
O       7.71783      5.80392     15.05919         0.640587      0.348904     -0.131550
O       7.74249      5.83415      6.50967         0.724153      0.028578      0.748334
O       7.80570      5.63010     10.90512         0.386246      0.340545      0.161937
O       7.77387      9.71863      2.57388         0.522065     -0.064140     -0.037209
O       7.75613      9.79092     15.06885         0.568677     -0.077392     -0.506770
O       7.76155      9.71931      6.56095         0.016145      0.286492     -0.112141
O       7.81605      9.75136     10.90894         1.270687     -0.147440     -0.302314
O      11.63724      1.93550      2.53952         1.223104     -0.243404     -0.134676
O      11.69735      1.85636     14.93500        -0.124109      0.003127      0.059175
O      11.56892     13.81202      2.35926        -0.205955     -0.432052      0.237058
O      11.64886     13.80868     14.94290         0.130795     -0.726308      0.694991
O      11.60691      1.99961      6.79741         1.629031     -0.115014     -0.126787
O      11.74797     13.45815      6.67090        -0.580984      0.684945     -0.054238
O      11.68825      1.84611     10.93138         0.183871      0.669655     -0.508924
O      11.72371     13.61476     10.76506        -0.596726      0.297568     -0.070145
O      11.78594      5.89520      2.49319        -1.188921     -0.066562     -0.250996
O      11.64355      5.90987     15.07588         0.521385      0.250651      0.004281
O      11.65702      5.75176      6.64347        -0.072515      0.132402      0.174392
O      11.72113      5.75738     10.96144        -0.124331     -0.076035     -0.424010
O      11.68759      9.67148      2.50534        -0.187817     -0.383676     -0.313182
O      11.68158      9.51310     15.01414        -0.473148      0.424612      0.018916
O      11.71034      9.78322      6.64796        -0.534409     -0.186459      0.459665
O      11.65511      9.87585     10.83484        -0.226405     -1.140664     -0.014134
O       1.92166      3.89671      2.59205        -0.532887      0.208140     -0.246999
O       1.94931      3.81597     14.94145        -0.451878      1.350588      0.471807
O       1.89117      0.00064      2.63844        -0.358462      0.043849     -0.344558
O       1.81981     15.50333     15.06379         0.024609     -0.140399     -0.172878
O      13.59721      3.88887      2.39194         0.207974     -0.431949      0.260814
O      13.60319      3.90631     15.09118         0.186170     -0.237952     -0.357915
O      13.62415     15.52019      2.49556         0.034599      0.685387     -0.002013
O      13.65632     15.60142     14.91720         0.059076      0.036947      0.491083
O       1.88486      3.94328      6.77644        -0.620677     -0.153145     -0.203505
O       1.83110     15.57603      6.63081         0.251608      0.742483      0.251056
O      13.71304      3.87107      6.71244        -0.387031      0.055266     -0.125953
O      13.54470     15.57832      6.56478        -0.139482      0.439720      0.263882
O       2.09035      3.94148     10.86702        -0.976979     -0.814846     -0.194178
O       2.06362     15.58353     10.88605        -0.560397      0.323535     -0.157925
O      13.76226      3.90651     10.91841        -0.258725     -0.395967     -0.291075
O      13.60010      0.01436     10.95907         0.489619     -0.230391     -0.737442
O       1.89083      7.83975      2.38032         0.058278     -0.407117      0.371152
O       1.87979      7.83599     14.93238         0.070518     -0.945717      0.281817
O      13.76699      7.81343      2.57538        -0.453278      0.075024     -0.375911
O      13.70171      7.77756     15.00750        -0.282608      0.316455     -0.002188
O       2.01283      7.86895      6.57480         0.035532     -0.585701     -0.071094
O      13.53832      7.70733      6.90400         0.193624      0.302553     -0.874485
O       1.87564      7.82020     11.07723        -0.188547     -0.104752     -0.331818
O      13.68689      7.78126     10.82353        -0.441857     -0.047618      0.188014
O       1.93676     11.69156      2.50713        -0.079475     -0.119930      0.396908
O       1.82935     11.73013     15.06305         0.359542     -0.313626     -0.579176
O      13.53032     11.62355      2.69533         0.508917      0.138512     -0.900568
O      13.27515     11.60323     14.85814         0.804993      1.447494      0.295712
O       1.83191     11.74368      6.56387         0.352867     -0.917579     -0.010383
O      13.76476     11.65619      6.69791        -0.194527     -0.154437      0.027382
O       1.97330     11.68154     10.92652        -0.063309     -0.725829     -0.707309
O      13.47795     11.69205     10.80094         1.340071      0.502272     -0.025081
O       5.64383      3.91738      2.62254         0.559500     -0.398640     -0.246826
O       5.82293      3.87305     14.89592        -0.213144      0.392244      0.069195
O       5.84885      0.03058      2.52383         0.362132     -0.035033     -0.225733
O       5.78762     15.58450     14.91944         0.549786     -0.286756     -0.173808
O       5.80243      3.75413      6.60486        -0.029060      0.394251      0.283552
O       5.83810      0.01133      6.81020         0.209399     -0.863839     -1.182493
O       5.68102      3.80532     11.01441         0.599697     -0.035719     -0.386454
O       5.78323     15.46393     10.85484         0.643231      0.581361      0.019069
O       5.85943      7.75147      2.62830        -0.361833      0.643978     -0.166129
O       5.75870      7.83985     14.99151         0.598813     -0.145356      0.131164
O       5.83125      7.75173      6.71938        -0.164866      0.110626     -0.293101
O       6.02721      7.78384     10.79255        -0.286440     -1.563677      0.221568
O       5.81343     11.72449      2.48182         0.189925      0.023229     -0.277069
O       5.84119     11.70356     15.10660        -0.166611      0.014874     -0.936797
O       5.75267     11.77343      6.68934         0.642512     -0.314667     -0.263707
O       5.82859     11.51765     10.85448         0.156344      1.319181     -0.477302
O       9.82978      3.86508      2.61372         0.045789      0.443588     -0.480663
O       9.85394      3.90085     15.02115        -0.576972     -0.262344      0.147856
O       9.59199      0.09070      2.42647         0.117757     -1.466244      0.634032
O       9.70819     15.56347     14.94637        -0.260615      0.593879      0.470170
O       9.69736      3.82388      6.70119        -0.056396      0.972456     -0.025707
O       9.82484      0.00001      6.64428        -0.264993     -0.599736      0.546982
O       9.84109      3.80854     10.98346        -0.069886      0.148474     -0.340436
O       9.73513     15.56515     10.77465        -0.196568     -0.073584      0.331234
O       9.69700      7.65301      2.53241         0.084265      1.751682      0.097609
O       9.60123      7.79108     14.98305         0.148114      0.292613      0.296313
O       9.70454      7.85181      6.51805         0.314199     -1.222561      0.681295
O       9.83213      7.77977     10.79350        -0.410285     -0.148786      0.094046
O       9.72981     11.66802      2.45449        -0.174442      0.526609     -0.164020
O       9.84216     11.64427     15.11485        -0.278398      0.175914     -0.625873
O       9.70987     11.68568      6.59570        -0.396099      0.257534      0.245427
O       9.76397     11.70389     10.75826        -0.307034     -0.576148      0.108065
