  # total energy = -7881.63234895 
CRSYTAL
PRIMVEC
    15.6080000000000005    0.0000000000000000    0.0000000000000000
     0.0000000000000000   15.6080000000000005    0.0000000000000000
     0.0000000000000000    0.0000000000000000   16.6239999999999988
PRESSURE
-0.2483 -0.283857 0.554641 -0.101863 0.005898 -0.016973
PRIMCOORD
320 1
Pb       3.82166      3.80076      4.06617         0.314178      0.025817      0.957543
Pb       3.77137      3.77196      0.04182        -0.010468     -0.115935     -0.546440
Pb       3.90669     15.49452      4.24439         0.441381     -0.005959     -0.310895
Pb       3.92214     15.54098      0.08213        -0.141242      0.264989     -0.538049
Pb      15.49772      3.82805      4.14891         0.207112      0.398236     -0.310688
Pb      15.54900      3.91733     16.55794         0.464152      0.280250      0.189014
Pb       0.12028      0.01194      4.20122        -0.647642     -0.400007      0.013981
Pb       0.04437     15.54673      0.00192         0.175173      0.237031      0.415400
Pb       3.98904      4.00697      8.34501        -0.726999     -0.046680     -0.172677
Pb       3.90591      0.13933      8.48895         0.218941     -0.142680     -0.472475
Pb       0.05439      3.91604      8.22651         0.135455      0.091219     -0.137934
Pb       0.08932      0.07029      8.29296        -1.005777      0.017794      0.340329
Pb       3.88275      3.98945     12.38211        -0.367136     -0.136434      0.528894
Pb       3.85886     15.57463     12.32733         0.238708      0.126745      0.433779
Pb      15.52890      3.74525     12.22719         0.083883      0.174073      1.157612
Pb      15.47631     15.59889     12.38196         0.170357     -0.449033     -0.162455
Pb       3.84830      7.73436      4.21681        -0.066093      0.176194     -0.407022
Pb       3.79107      7.80820     16.59667        -0.008899     -0.057038     -0.206472
Pb      15.56530      7.80605      4.06162         0.075730      0.292197     -0.239924
Pb       0.01611      7.79828      0.01213        -0.102574     -0.048204     -0.181550
Pb       4.03637      7.83079      8.23233        -1.028959      0.210763      0.933405
Pb       0.07764      7.84873      8.14984        -0.168870     -0.089219      1.150442
Pb       3.76568      7.85849     12.53040         0.194301     -0.025970     -0.308047
Pb      15.59993      7.75926     12.40664        -0.030823     -0.094891      0.015886
Pb       3.97148     11.66204      4.23230         0.089060      0.365352     -0.242929
Pb       3.89394     11.66132     16.52295        -0.069347      0.033772      0.521734
Pb       0.05491     11.79612      4.18920        -0.244378     -0.463011     -0.212774
Pb       0.05844     11.74618      0.06071        -0.053959     -0.419346     -0.051823
Pb       3.89155     11.56707      8.25362        -0.287835      0.109920      0.532738
Pb      15.45921     11.72218      8.33224         0.227458     -0.084318     -0.209860
Pb       3.77317     11.81385     12.56614        -0.020512     -0.384795     -0.339434
Pb      15.46698     11.58008     12.37775         0.131166      0.630526      0.309481
Pb       7.75446      3.98045      4.10023         0.226130     -0.133016     -0.125278
Pb       7.63441      3.67225      0.03477         0.181433      0.676662      0.030328
Pb       7.73795      0.01036      4.08346         0.046645     -0.252138      0.162751
Pb       7.78679     15.41016      0.00311        -0.186761     -0.095857     -0.325109
Pb       7.77956      3.96854      8.21446         0.522167     -0.047054      0.551472
Pb       7.78065     15.53398      8.44381         0.041552      0.025245     -0.228670
Pb       7.75424      4.11146     12.46014         0.611099     -0.548377      0.395917
Pb       7.86608      0.13099     12.48789        -0.460811     -0.566866      0.117726
Pb       7.60916      7.78991      3.97510         1.061492     -0.110951      0.657003
Pb       7.91597      7.80129     16.54844        -0.193224     -0.443273      0.601560
Pb       7.79685      7.80674      8.43877        -0.101366      0.040921     -0.302122
Pb       7.79741      7.83892     12.56482        -0.007864      0.045808     -0.069992
Pb       7.72346     11.75121      4.07664         0.565176     -0.599218      0.120559
Pb       7.82975     11.50846     16.62139         0.382676      0.724506      0.095096
Pb       7.61565     11.63298      8.37481         0.719367     -0.148451     -0.263926
Pb       7.70947     11.67166     12.53411         0.582638     -0.292696     -0.125595
Pb      11.62637      4.03319      4.14901         0.414236     -0.312679     -0.228144
Pb      11.71943      3.75940     16.41749        -0.023184      0.542630      1.045482
Pb      11.86990      0.23155      4.21305        -0.175157     -0.771524     -0.217638
Pb      11.71675     15.55101      0.03732         0.160596      0.304746      0.092733
Pb      11.67929      3.75971      8.18140         0.058785      0.429678      0.022333
Pb      11.59209     15.41797      8.22099         0.503900      0.262920     -0.054637
Pb      11.59760      3.88876     12.41117        -0.032257     -0.205019      0.018846
Pb      11.87634     15.54942     12.46152        -0.245531      0.201197      0.112873
Pb      11.71871      7.78689      4.03903        -0.161561      0.480754      0.170016
Pb      11.64723      7.72494     16.56429         0.073666      0.383943      0.192946
Pb      11.71453      7.83935      8.09543        -0.149295     -0.789752      0.461273
Pb      11.82207      7.59707     12.45249        -0.588832      0.352868     -0.203033
Pb      11.53239     11.97472      4.22925         0.129976     -0.908108     -0.261032
Pb      11.84236     11.79130     16.61238        -0.564244     -0.497940      0.112759
Pb      11.65655     11.56583      8.14258        -0.161797      0.970211      0.593004
Pb      11.57504     11.58604     12.39632         0.220402      0.182172      0.181090
Ti       1.93767      1.80535      2.35613         0.345615      0.849903     -1.581099
Ti       1.92549      1.85135     14.69386         0.972093      0.113403      0.981254
Ti       1.99940     13.57082      2.30555         0.544386     -0.244536     -0.730353
Ti       1.96108     13.54875     14.66397         0.023600      1.633842     -0.631522
Ti      13.69137      1.94423      2.16325        -0.231967     -0.106583      0.553457
Ti      13.76273      1.96058     14.74320        -1.420826      0.029263     -0.088360
Ti      13.64533     13.60358      2.32146        -0.044605      0.797122     -0.578902
Ti      13.71608     13.71051     14.73801        -0.183955     -0.151448     -1.306834
Ti       1.97712      2.04587      6.41440         0.399366      0.091067      0.328045
Ti       1.98553     13.67999      6.50481         0.008176     -0.476044     -0.741554
Ti      13.68688      1.97290      6.32966         0.041477     -0.518666      0.815733
Ti      13.71917     13.61355      6.31876        -0.838220      0.837615     -0.306761
Ti       1.93796      1.97731     10.49679         0.189948      0.128676     -0.678240
Ti       1.92887     13.67894     10.51491        -0.802639     -0.732366      0.515120
Ti      13.52952      1.91575     10.39091         0.408094     -0.546394     -0.686776
Ti      13.55589     13.61396     10.51438         0.937697      0.249314     -0.482755
Ti       1.93205      5.78320      2.27530        -0.176237      0.178651     -0.760720
Ti       1.93853      5.78224     14.69365        -0.962176     -0.550707      0.330751
Ti      13.68599      5.91448      2.07531         0.092950     -0.891865      0.401600
Ti      13.61837      5.97705     14.61775         0.272342     -1.437527      1.443025
Ti       1.98381      6.01582      6.28929        -0.139482     -1.492331     -0.200611
Ti      13.76047      5.86933      6.32796        -1.293539     -0.398879     -0.029211
Ti       1.85653      5.91670     10.51426         1.151625      0.316154     -1.199631
Ti      13.68646      5.72332     10.36326        -0.532786      0.727224      1.856500
Ti       2.07414      9.76047      2.28222        -1.270327      0.426771     -0.620521
Ti       1.89172      9.73561     14.64564         0.201039      0.841814      0.152126
Ti      13.62336      9.79877      2.23388         0.361168      0.497747     -0.447881
Ti      13.63231      9.81627     14.66321        -0.153840     -0.105291      0.418444
Ti       1.83597      9.81150      6.30957         1.071880      0.123236      0.614886
Ti      13.59620      9.72545      6.32166         0.757934      0.233028     -0.173382
Ti       1.86243      9.79290     10.56545         0.944583     -0.562859      0.533958
Ti      13.57333      9.60871     10.47825         0.582997      0.193864      0.104699
Ti       5.88373      1.88108      2.27680        -0.480599     -0.532506      0.941645
Ti       5.77565      1.92452     14.61685        -0.543214     -0.185697      0.617679
Ti       5.90883     13.50369      2.14664        -0.832185      0.822372      0.504928
Ti       5.82627     13.61807     14.64800         0.693345      0.386915      0.738144
Ti       5.89969      1.99013      6.43550        -0.917516     -0.911046     -0.735344
Ti       5.83196     13.65287      6.53362         0.024130     -0.206614     -0.873248
Ti       5.90709      1.98553     10.59637        -0.493546     -0.509469      0.327418
Ti       5.84892     13.52344     10.62087        -0.185161      0.601368     -0.209881
Ti       5.78717      5.79966      2.24030         0.223004     -0.555527      1.148427
Ti       5.73982      5.82681     14.70470         0.344474     -0.302758     -1.027490
Ti       5.83270      5.81594      6.38802         0.004562      0.995528     -1.027373
Ti       5.84184      5.85521     10.59154        -0.324346      0.648542     -0.070667
Ti       5.81794      9.64631      2.13952         0.640237      1.336837      0.918317
Ti       5.81654      9.70953     14.71649        -0.376413     -0.172815     -0.428585
Ti       5.81555      9.68580      6.27985         0.310724      0.771257      0.321767
Ti       5.77985      9.66799     10.63466        -0.314966      0.556628      1.533503
Ti       9.81787      1.90816      2.19213        -0.335153     -0.070142      0.012566
Ti       9.65306      1.89524     14.71608         0.631001      0.414550     -0.272993
Ti       9.74327     13.72660      2.20140        -0.094468     -1.202638     -0.066132
Ti       9.79133     13.65637     14.63529        -0.990658     -0.827712      1.781264
Ti       9.70157      1.87430      6.31224         0.700477      0.178234      0.406682
Ti       9.65267     13.60390      6.33040         0.606420     -0.678027      0.164433
Ti       9.73471      1.85811     10.51501         0.525405      1.086187      0.431324
Ti       9.73224     13.67201     10.55549        -0.137375     -1.164580      0.149586
Ti       9.83510      5.80170      2.20043        -1.190590      0.578297     -0.619410
Ti       9.65996      5.74607     14.73761         0.142722      0.669206     -0.135423
Ti       9.70614      5.82510      6.30576         0.948834     -0.068888      0.578837
Ti       9.81714      5.84508     10.50233        -0.472268     -0.862233      0.442586
Ti       9.75404      9.72471      2.22758        -0.200388      1.552318     -0.036946
Ti       9.75384      9.69557     14.75100         0.817812      0.825142     -0.421256
Ti       9.68892      9.68469      6.26125        -0.399229      1.216211     -0.554797
Ti       9.75078      9.63503     10.58759        -0.784929      0.575428      1.502486
O       2.02908      1.81842      0.52832        -0.013663      0.380093      0.681725
O       1.96776      1.93979     12.96238        -0.172063     -0.190659     -1.357700
O       2.04416     13.36552      0.49835        -0.043852      0.744313      0.462931
O       1.85707     13.64617     12.87986         0.172597      0.096719     -0.080225
O      13.54967      1.86441      0.42136         0.594535      0.032175     -0.847907
O      13.59417      1.96229     12.97203         0.280878     -0.236353     -0.138035
O      13.60891     13.62734      0.47831         0.184196     -0.068688      0.034712
O      13.73449     13.79152     12.86441        -0.129437     -0.026572      1.562533
O       1.89946      1.76709      4.63841         0.138192      0.312419      0.051647
O       2.04360     13.75959      4.68138        -0.581721     -0.375122      0.129248
O      13.82222      2.03272      4.52433        -0.767182     -0.319294      0.530778
O      13.76139     13.59082      4.49300        -0.451644     -0.133361      0.947907
O       1.87989      1.91355      8.68414         0.104377      0.365605      0.510173
O       1.93257     13.52975      8.75727        -0.233453      0.279727     -0.658334
O      13.64859      1.92480      8.61275        -0.088820     -0.122354      0.327944
O      13.51914     13.70597      8.70661         0.203407     -0.544636      0.013682
O       1.88801      5.85506      0.41062         0.263311     -0.028746      1.271695
O       1.88753      5.80859     12.92865         0.259964      0.231950     -0.279156
O      13.70111      5.99675      0.30770         0.036106     -0.239472      0.769742
O      13.43468      5.79093     12.85978         0.718873      0.176215     -0.115001
O       1.99029      5.85650      4.47546         0.032199      0.684772      0.856002
O      13.74563      5.88405      4.53590        -0.399575     -0.195467      0.378122
O       1.83512      6.00588      8.70581        -0.188448     -0.428844      0.399092
O      13.78470      5.85863      8.68033        -0.000275     -0.224345     -1.529978
O       1.95329      9.94204      0.45537         0.163156     -0.426196      0.536738
O       2.11489      9.82117     12.87952        -0.703610     -0.539822     -0.105552
O      13.67420      9.83860      0.43382         0.145543     -0.034770      0.149318
O      13.69110      9.67921     12.89741        -0.466053      0.034429     -0.281119
O       2.00172      9.80590      4.56734        -0.186568     -0.274325     -0.642853
O      13.65796      9.65559      4.57494         0.073702     -0.067849     -0.351261
O       1.95231      9.68468      8.83998        -0.293127      0.244740     -1.142343
O      13.65772      9.68393      8.71056        -0.181863      0.268711     -0.060017
O       5.71173      1.85924      0.54554         0.128545      0.251477     -0.957242
O       5.76593      1.94571     12.85479         0.060954     -0.328322     -0.412051
O       5.81125     13.60134      0.37662         0.072994      0.220866      0.210043
O       5.87005     13.58850     12.90128         0.061935      0.000556     -1.111182
O       5.95681      1.76905      4.66660        -0.282956      0.638029      0.795343
O       6.02258     13.46781      4.73862        -0.579914      0.854751      1.097422
O       5.88593      2.06745      8.83147         0.067177     -0.117000     -0.791748
O       5.62555     13.46470      8.83682         0.888704      0.142476     -0.599996
O       5.83925      5.67270      0.54777        -0.217533      0.322774     -1.567751
O       5.67869      5.87757     12.85459         0.160771     -0.402686      0.398402
O       5.78115      5.85542      4.59484         0.095155      0.230805      0.120397
O       5.89715      5.64919      8.73703         0.015352      0.781801      0.894927
O       5.93524      9.70894      0.38543        -0.561302     -0.450966     -0.397949
O       5.86293      9.58014     12.91043        -0.220054      0.449319      1.178598
O       5.74282      9.85202      4.52133         0.188216     -0.795899      0.689306
O       5.77609      9.65062      8.87752         0.744516      0.341786     -1.049235
O       9.79462      1.96241      0.41957        -0.347505     -0.218137      0.126861
O       9.69782      2.00623     12.90625        -0.118392     -0.272275      1.062732
O       9.80477     13.90489      0.43903        -0.188638     -0.486731     -0.448128
O       9.69980     13.55749     12.90644         0.185887      0.275873     -0.510889
O       9.89192      1.92599      4.55960        -0.473998      0.451133     -0.037068
O       9.55536     13.33217      4.53950         0.356267      0.911373      0.861790
O       9.82068      1.78822      8.76467        -0.391709      0.025372     -1.014179
O       9.87246     13.72378      8.77204        -0.320910      0.088170      0.384463
O       9.68755      5.92514      0.44176         0.362927      0.090976     -0.218768
O       9.78574      5.62949     12.93109         0.097318      0.302153      0.228520
O       9.84441      5.69803      4.55569         0.013207      0.179693     -0.394780
O       9.61246      5.81597      8.74996        -0.054460      0.555173     -0.615300
O       9.62423      9.61765      0.43609         0.165049     -0.011140     -0.206465
O       9.71020      9.70887     12.95835         0.494547      0.107913      0.429390
O       9.76229      9.98114      4.53368         0.112185     -0.468827      0.082937
O       9.56348      9.47092      8.86196         0.265637      0.216171     -1.108601
O       3.88165      1.84345      2.69878         0.199634      0.400207     -0.210424
O       3.88078      1.94121     15.03183        -0.205700     -0.360202      0.148500
O       4.02661     13.61164      2.63747        -0.671561      0.437659      0.012789
O       3.91621     13.62699     14.79151        -0.204780     -0.167476      0.635414
O      15.56545      1.80831      2.52760         0.913780      0.349206      0.022168
O       0.02965      1.90008     15.05404        -0.488885     -0.256529      0.066728
O       0.07854     13.52862      2.57477         0.254423      0.104701     -0.291013
O       0.03845     13.75479     15.13524        -0.524820     -0.979425     -0.441068
O       3.89764      1.92747      6.77005         0.286823     -0.314567      0.081896
O       3.86077     13.65923      6.67087         0.718749     -0.175534      0.292702
O       0.06844      2.06592      6.67647        -0.330382     -0.169973      0.075325
O      15.50442     13.46303      6.62379         1.453076      0.161935      0.490153
O       3.90607      1.92898     10.68034        -0.495752      0.088964      0.454650
O       3.82089     13.49980     10.83231        -0.057602      0.645775      0.576171
O      15.48450      1.88538     10.73312         0.983436      0.445723      0.249398
O      15.56984     13.74040     10.83645         0.293578     -0.289785     -0.351842
O       3.88144      5.66262      2.59426         0.002918      0.624940     -0.552119
O       3.82087      5.64522     14.99907        -0.070349      1.059358      0.320711
O       0.04089      5.85222      2.54986        -0.331938      0.028179     -0.403030
O      15.58500      5.85040     15.03952        -0.154739      0.349989     -0.359416
O       3.83800      5.96257      6.71459         0.699396      0.314652     -0.124348
O       0.02673      5.77843      6.54710         0.249271      0.416980      0.262103
O       3.79517      5.98976     10.67541         1.417059     -0.773724      0.585652
O      15.59764      5.72063     10.93753        -1.232229      0.476165     -0.504714
O       3.94655      9.74964      2.60632        -0.235620     -0.164960     -0.429026
O       3.84722      9.61213     15.05078         0.991577      0.637154     -0.038359
O      15.60430      9.72190      2.52014         0.301490      0.377956      0.233929
O       0.02677      9.97373     14.83642        -0.626272     -0.522450      0.494453
O       3.87086      9.64072      6.71619         0.531055      0.346841     -0.383720
O      15.60146      9.71441      6.72946        -0.897384      0.517927     -0.410287
O       3.86738      9.56769     10.86829         0.461213      0.585261     -0.033120
O      15.53104      9.62428     10.85802         0.007760      0.517511      0.100840
O       7.83015      2.06904      2.51026         0.407959     -0.538312      0.010751
O       7.62702      1.97047     15.07277         1.411768     -0.085939     -0.229208
O       7.81714     13.75988      2.58850        -1.220553     -0.408744     -0.684042
O       7.81778     13.52391     15.07405         0.273194      0.488523     -0.252917
O       7.77939      1.98377      6.71656         0.364589      0.015680     -0.017334
O       7.84688     13.64919      6.91350        -1.353822     -0.271981      0.148694
O       7.81472      1.89424     10.86840        -0.717721      0.042648     -0.090215
O       7.78641     13.61247     10.76152        -0.021648     -0.278046     -0.073308
O       7.90872      5.87775      2.54017        -1.327619     -0.142324      0.349048
O       7.72231      5.85024     14.88856         0.050050     -0.003243      0.162707
O       7.76006      5.72488      6.51156         0.388383      0.231512      0.541479
O       7.78351      5.85881     10.92011        -0.443457     -0.302926     -0.340647
O       7.75409      9.64155      2.60338        -0.972574      0.153462     -0.569671
O       7.82942      9.66224     15.07660        -0.961861     -0.091224     -0.655775
O       7.82676      9.82482      6.54772        -0.966909     -0.640968      0.575165
O       7.83783      9.73802     11.08636        -0.117557     -0.120607     -0.945194
O      11.76004      1.82204      2.53189        -0.469762      0.283418      0.057933
O      11.67727      1.90594     15.06881        -0.546694      0.177241     -0.711949
O      11.63278     13.73037      2.58726         0.587234     -0.470154      0.172811
O      11.70297     13.79744     15.02003        -0.095384     -0.521350     -0.395923
O      11.76557      1.86506      6.62278        -0.338609      0.302278     -0.292269
O      11.57831     13.60204      6.57298         1.051665      0.060714     -0.091751
O      11.66656      1.74272     10.78697        -0.287900      0.507478      0.245026
O      11.69932     13.62125     10.91878        -0.747150      0.440322      0.083865
O      11.73801      5.95738      2.51847         0.498830     -0.217829     -0.151369
O      11.69234      5.81821     15.00645         0.177280      0.116197     -0.104190
O      11.70306      5.82589      6.68035        -0.022931     -0.168688     -0.036507
O      11.71584      5.77580     10.72952        -0.255086      0.286526      0.040260
O      11.67929      9.83521      2.50321         0.401690     -0.402313     -0.009963
O      11.69201      9.81579     15.09935         0.574877     -0.462733     -0.417583
O      11.71402      9.77916      6.62408        -0.662717     -0.667894      0.189803
O      11.72817      9.67982     10.81331        -0.837304      0.095069      0.153873
O       1.91074      3.80601      2.72665        -0.174793      0.420932     -0.910314
O       1.85443      3.84729     15.01864         0.155167     -0.025091      0.220535
O       2.00161     15.54707      2.51265        -0.097676     -0.957414      0.351518
O       2.00040     15.51164     15.11137        -0.095537      0.598451     -0.068019
O      13.66308      3.86561      2.34729         0.158189      0.644614      0.420011
O      13.73634      3.92870     15.10484        -0.356356     -0.613032     -0.659071
O      13.72207     15.49249      2.56185        -0.158453      0.801814      0.185943
O      13.66500     15.59910     15.03602         0.264784      0.300959     -0.002145
O       2.11316      4.00053      6.63316        -0.655244     -0.878914      0.048932
O       1.82268     15.53739      6.81352         0.495531      0.380552     -0.311915
O      13.70297      3.89818      6.75510        -0.230409      0.069207     -0.618823
O      13.83241     15.58163      6.53497        -0.403365      0.149108     -0.039525
O       1.92069      3.91849     10.82387         0.037946     -0.598845     -0.192484
O       1.98453      0.07895     10.70728        -0.069999     -1.037424      0.351432
O      13.46536      3.82005     10.69548         0.699545      0.286869      0.197984
O      13.60952     15.59999     10.78922        -0.061920     -0.094952      0.429079
O       2.04286      7.86439      2.49002         0.033726     -1.198256      0.139483
O       1.87911      7.89618     14.98422         0.058396     -1.468399      0.148677
O      13.73387      7.76474      2.44060        -0.307884      0.564846      0.291482
O      13.68678      7.84271     14.98451        -0.055464      0.175327     -0.336568
O       1.86301      7.91208      6.61411         0.252056     -1.563588     -0.240561
O      13.60273      7.77300      6.69682         0.392778      0.005365     -0.363570
O       1.89522      7.81070     10.88932        -0.799831     -0.488562      0.554575
O      13.58266      7.71215     10.71306         0.293100     -0.176685      0.544274
O       2.16661     11.68838      2.70243        -0.916370      0.247287     -0.125373
O       2.07103     11.72321     14.93179        -0.291198     -0.616634      0.087192
O      13.65370     11.70915      2.58166         0.057392     -0.357305     -0.048041
O      13.61093     11.74933     14.96042         0.062115      0.427697     -0.059629
O       1.90030     11.63687      6.71766         0.198254      0.962092      0.139589
O      13.60467     11.65089      6.66268        -0.009692      0.089490      0.092475
O       1.85214     11.66086     10.93186        -0.008412      0.465081     -0.447816
O      13.59234     11.74644     10.93743         0.291212     -0.968501     -0.677743
O       5.91182      3.81901      2.66111        -0.490120      0.757720     -0.253378
O       5.69913      3.87096     14.96250         0.634662     -0.291081      0.333353
O       5.82896     15.56498      2.64511         0.448924      0.090836     -0.361012
O       5.89033     15.51675     14.96509        -0.269879      0.733443      0.091997
O       5.67008      3.99229      6.62286         0.530445     -1.877162      0.247140
O       5.85969     15.58699      6.92420         0.053069     -0.063367     -0.303823
O       5.80721      3.89153     10.98199         0.106398      0.525161     -0.686411
O       5.78954     15.47029     10.88471         0.123532      1.102730     -0.327509
O       5.68181      7.79595      2.56199         0.357169     -1.321989     -0.247329
O       5.70107      7.69304     14.97453         0.129282      0.492372      0.591578
O       5.90226      7.80498      6.78432         0.206172     -0.113975     -0.516067
O       6.02123      7.82418     10.92450        -0.528525     -1.562185     -0.676158
O       5.77694     11.64525      2.40985         0.635602      0.048551      0.158334
O       5.83989     11.62663     14.98940        -0.081277     -0.584356     -0.383984
O       5.81931     11.60792      6.80618        -0.018665      0.304346     -0.076152
O       5.82703     11.65148     11.03936         0.055193     -0.509580     -0.464733
O       9.90089      3.94340      2.48185        -0.101836     -0.843609      0.148192
O       9.60383      3.95285     15.17012         0.367451     -1.443226     -0.381435
O       9.67422     15.59752      2.53514         0.167964      1.345937      0.336527
O       9.58330      0.05372     14.96859         0.139283     -0.604849     -0.367045
O       9.77136      3.86883      6.73989        -0.061293     -0.467464     -0.362319
O       9.73714     15.55988      6.48282        -0.274342      0.373103      0.512625
O       9.73658      3.83823     10.83767         0.044803      0.150943     -0.301131
O       9.61849     15.55779     10.88234         0.396263     -0.144315      0.151378
O       9.74020      7.92981      2.56240         0.365844     -2.218841      0.576339
O       9.82891      7.75945     15.05675        -0.447274     -0.173958     -0.365258
O       9.80297      7.77005      6.42822        -0.304873     -0.074573      0.636066
O       9.73118      7.69242     11.03738         0.237998      0.357808     -0.590907
O       9.51107     11.72503      2.38221         0.729329      0.183099     -0.163030
O       9.75183     11.63827     15.20835         0.266838      0.872992     -0.871934
O       9.76709     11.65071      6.81147        -0.328990     -0.044903     -0.128097
O       9.75275     11.64452     10.93150         0.117274     -0.007909     -0.605676
