  # total energy = -7877.23413474 
CRSYTAL
PRIMVEC
    15.6080000000000005    0.0000000000000000    0.0000000000000000
     0.0000000000000000   15.6080000000000005    0.0000000000000000
     0.0000000000000000    0.0000000000000000   16.6239999999999988
PRESSURE
0.392625 0.389429 1.19855 -0.382504 -0.162525 -0.070663
PRIMCOORD
320 1
Pb       3.95105      3.94041      4.14921        -0.479423     -0.002259      0.107544
Pb       3.99189      4.01045      0.07122        -0.260315     -0.251390     -0.391051
Pb       3.88740     15.60524      4.07050        -0.039842      0.274812      0.058740
Pb       3.81150     15.58029     16.59577         0.420177     -0.276822      0.702722
Pb       0.04589      3.85569      4.10333        -0.368908      0.260695      0.697285
Pb      15.52017      3.85404     16.62235        -0.255850      0.248888      0.091938
Pb      15.53625     15.59751      4.02900         0.679052     -0.363411      0.711312
Pb      15.53575     15.56300     16.60195        -0.148497      0.146940      0.007214
Pb       3.77264      3.86195      8.31607        -0.117863     -0.709720     -0.180124
Pb       3.89479      0.02786      8.32315        -0.241025     -0.080046     -0.356110
Pb      15.56718      3.83733      8.26196         0.264403      0.436849      0.256473
Pb       0.07884     15.57611      8.21969        -0.338582      0.104147      0.451770
Pb       3.91036      3.92875     12.38750        -0.018885     -0.215282      0.093361
Pb       3.85421     15.49516     12.33810         0.087776     -0.142782      0.155687
Pb      15.57952      3.80401     12.44099         0.190382      0.090030     -0.250430
Pb      15.54342      0.16305     12.51911         0.387336     -0.655042     -0.622018
Pb       3.84493      7.81467      4.25832        -0.067920      0.160505     -0.836237
Pb       3.83505      7.75440      0.00785         0.336451      0.195393      0.008495
Pb       0.12844      7.83680      4.17456        -0.086494      0.273034      0.093826
Pb       0.01144      7.76149      0.01141        -0.246077      0.164460     -0.314472
Pb       4.02075      7.73994      8.12595        -1.001249     -0.040700      1.246403
Pb      15.49149      7.78572      8.41028         0.605093     -0.455184      0.031418
Pb       3.90412      7.83973     12.45807        -0.060508     -0.126808     -0.427487
Pb       0.00598      7.85279     12.51715        -0.400335      0.710867      0.328279
Pb       3.86454     11.68194      4.09761         0.198776     -0.417764      0.217391
Pb       3.90584     11.61410     16.49159        -0.360360      0.723691      0.760418
Pb      15.59294     11.65906      4.10768        -0.339074      0.107280     -0.121562
Pb      15.57157     11.75460     16.55560        -0.403706     -0.141492      0.669353
Pb       3.83322     11.65378      8.17422         0.615341      0.275653      0.071831
Pb      15.56719     11.64702      8.31850         0.089917      0.043624     -0.460883
Pb       3.98821     11.69037     12.37283        -0.321684      0.167237      0.363395
Pb       0.10348     11.59355     12.34421        -0.860479      0.182585      1.026442
Pb       7.84481      3.82188      4.17066        -0.117653     -0.093326     -0.381682
Pb       7.85286      3.96432      0.06872        -0.601536     -0.481119     -0.659557
Pb       7.81591     15.51222      4.03935        -0.354372     -0.129559     -0.120667
Pb       7.86973      0.10305      0.03633        -0.437333     -0.863204      0.061667
Pb       7.66917      3.94762      8.29157         0.345576     -0.038661      0.496491
Pb       7.81371     15.54101      8.32610         0.101755      0.003215      0.399296
Pb       7.72405      3.85115     12.41101        -0.093430     -0.124053      0.369222
Pb       7.72760     15.57225     12.49153        -0.094643      0.210848      0.405410
Pb       7.74740      7.83164      4.15754        -0.211962     -0.168606     -0.158424
Pb       7.86251      7.92026     16.60646        -0.773539     -0.556681     -0.258371
Pb       7.79045      7.77142      8.25866         0.305853      0.475145      0.808556
Pb       7.87153      7.65755     12.33211        -0.986234      0.544243      0.710038
Pb       7.91740     11.67690      4.24598        -0.521197      0.270627     -0.370076
Pb       7.73630     11.66350      0.02513        -0.017102      0.569078     -0.188358
Pb       7.67587     11.73233      8.16126         0.360559     -0.831349      0.777635
Pb       7.73742     11.56583     12.41615        -0.286140      0.432076      0.088995
Pb      11.72233      3.93941      4.22598         0.043874     -0.677300      0.196053
Pb      11.75498      4.01665      0.03311         0.110327     -1.083189      0.461490
Pb      11.54245     15.54465      4.10927         0.857140      0.004616      1.035609
Pb      11.60484     15.56323      0.04833         0.387028     -0.189798     -0.255967
Pb      11.76375      3.97243      8.29606        -0.501450      0.473258      0.796818
Pb      11.67345      0.07125      8.23517        -0.408115     -0.739377      0.931053
Pb      11.81919      3.84544     12.52001        -1.323391     -0.106565      0.566238
Pb      11.84497     15.55492     12.42945        -1.088254      0.169857     -0.026900
Pb      11.70302      7.57869      4.05039         0.065839      0.675062      0.225661
Pb      11.47920      7.77519     16.60612         1.124792      0.218273      0.290237
Pb      11.61531      7.90169      8.19654        -0.500249     -0.892239      1.346611
Pb      11.61746      7.80907     12.55337        -0.174279      0.635526     -0.004031
Pb      11.59926     11.48378      4.20802         0.634027      0.248809     -0.322002
Pb      11.76127     11.74939     16.55834        -0.242359     -0.240310      0.019474
Pb      11.92330     11.82180      8.32716        -0.993062     -0.238523     -0.289289
Pb      11.66056     11.79252     12.42087         0.171227     -0.608168      0.628906
Ti       1.98196      2.07701      2.15291        -0.621442      0.128335      1.071964
Ti       1.94969      2.00573     14.66144        -0.870474     -0.006830     -0.502430
Ti       1.93278     13.74512      2.16762        -0.111714     -0.798814     -0.781655
Ti       1.86479     13.66904     14.73935         0.847123     -0.806439     -1.259165
Ti      13.65750      1.86199      2.37406        -0.416215      2.144540     -1.315696
Ti      13.62468      1.85398     14.60364        -0.386307      1.209466      1.045940
Ti      13.64794     13.64140      2.19608        -0.107250     -0.798572     -0.730770
Ti      13.61063     13.61761     14.59343         0.271278     -0.523763      0.062153
Ti       1.88155      1.80163      6.26792         0.840519      1.008652      0.859602
Ti       1.95357     13.57492      6.45647        -0.140988      0.038500      0.642874
Ti      13.52951      1.99025      6.47275         0.906117      0.028283     -1.703822
Ti      13.61759     13.72777      6.45539         0.411423     -0.616107     -1.545686
Ti       2.00954      1.85019     10.52240        -0.969780      0.460323      1.291580
Ti       1.90835     13.52735     10.49173        -0.063661      1.481875     -0.040094
Ti      13.57688      1.96876     10.40226         0.232352      0.139291      1.521203
Ti      13.64646     13.68084     10.54863         0.568779      0.042737      1.336977
Ti       1.81788      5.90095      2.17098         0.499230     -0.204993      0.789069
Ti       1.99564      5.88874     14.52554        -0.803677     -0.040298      0.939904
Ti      13.59116      5.78131      2.37175         0.403747     -0.340253     -1.073729
Ti      13.73573      5.84591     14.67726        -0.583760     -0.080958      0.452009
Ti       1.91941      5.74756      6.47374        -1.708961      0.082638      0.600116
Ti      13.64290      5.88621      6.49182         0.429887     -1.190868      0.013468
Ti       1.66702      5.91945     10.59914         1.575409     -0.953674     -1.261455
Ti      13.42873      5.97864     10.72937         0.744763     -0.420227     -2.400455
Ti       1.97565      9.79741      2.16422        -0.075357     -1.411658      0.728612
Ti       1.88732      9.75231     14.76880        -0.751668      0.861489     -0.055678
Ti      13.64351      9.68987      2.01682        -0.195875      0.337788      1.487433
Ti      13.64021      9.68332     14.80531         0.185707      0.414780      0.582274
Ti       1.93536      9.64558      6.43674        -0.759498     -0.059629     -0.903228
Ti      13.69133      9.69016      6.44210        -0.141168      0.598117     -1.381445
Ti       1.96231      9.72739     10.44650        -0.540683     -0.959100     -0.202651
Ti      13.64695      9.78097     10.38857        -0.560634     -0.321123      1.440431
Ti       5.84164      1.94338      2.25669         0.210947     -0.582109     -0.455885
Ti       5.69055      1.79606     14.83550         2.257435      0.973249     -1.061458
Ti       5.75370     13.58553      2.26391         1.242930      0.019094      0.618550
Ti       5.80445     13.58459     14.54687         0.241456     -0.306502      0.008031
Ti       5.82571      1.88056      6.32843        -1.028438      0.661587     -0.094800
Ti       5.89192     13.75773      6.27236        -0.710346     -1.333798      0.042979
Ti       5.82448      1.86746     10.43760         0.550960      0.392411      0.959549
Ti       5.83103     13.60795     10.32403         0.599095      0.088266      0.504455
Ti       5.64819      5.83810      2.20092         1.644591      0.721752     -0.343674
Ti       5.79597      5.84080     14.69105         1.004277     -0.464962      0.254020
Ti       5.84340      5.73800      6.39397        -0.097766     -0.337472     -1.093239
Ti       5.60099      5.83808     10.41195         1.766711      0.121462      1.939012
Ti       5.83299      9.72207      2.15595        -0.339927      0.171536      0.933626
Ti       5.77512      9.71642     14.62838         0.782943      0.122413      0.272293
Ti       5.84812      9.69785      6.28086         1.065079      0.197772     -0.340188
Ti       5.80085      9.74453     10.46056         1.121366     -0.421524      0.471147
Ti       9.77989      1.90588      2.30789         0.134333      0.589299      0.712616
Ti       9.80191      1.85635     14.75390        -0.797036      0.678131     -1.160151
Ti       9.75897     13.59039      2.22280        -0.689835     -0.134011     -0.414817
Ti       9.69527     13.58308     14.69860         0.133206      0.525029      0.363750
Ti       9.60406      1.96682      6.54874         1.051670      0.735125     -2.095879
Ti       9.69191     13.64992      6.33994         0.599356     -0.606312     -1.230831
Ti       9.69656      1.90350     10.59993         0.222059      0.048808      0.332511
Ti       9.61762     13.67214     10.61154        -0.227215      0.327881      0.096917
Ti       9.53930      5.78865      2.16367         0.665551     -0.538609      0.700927
Ti       9.78258      5.80353     14.77394        -0.978781     -0.910887      0.359674
Ti       9.72370      5.86257      6.34429        -0.058153      0.015773      0.611619
Ti       9.63866      5.86521     10.57181        -0.051134     -0.166689     -0.626890
Ti       9.70601      9.64173      2.25228         1.293049      1.044770      0.067632
Ti       9.67753      9.75590     14.65354         1.437565      0.337938     -0.374710
Ti       9.75361      9.74255      6.47084        -0.884724      0.144090     -0.395710
Ti       9.69717      9.78383     10.65843        -0.147714     -0.887889     -1.602610
O       1.87466      2.18016      0.42951         0.321872     -0.339457     -1.336801
O       1.84432      1.76493     12.83996         0.483413      0.412432      0.957698
O       1.99719     13.66729      0.37260         0.285485      0.105091      0.797531
O       1.92235     13.62556     12.88750        -0.055682      0.140141      0.313669
O      13.60350      1.83110      0.58654         0.422771      0.169439     -0.086881
O      13.48846      1.95756     12.82478         0.532775     -0.059303      0.088311
O      13.74874     13.79976      0.36061        -0.381810      0.080393      1.324327
O      13.68937     13.53049     12.77133        -0.119618      0.574679      0.432428
O       2.04053      1.83862      4.54218        -0.198292      0.155797     -0.571132
O       1.66552     13.44428      4.77148         0.266779      0.426874     -1.693404
O      13.56655      2.28508      4.68092         0.418549     -1.294242      0.499197
O      13.82879     13.60965      4.68396        -0.076776      0.311158     -0.017534
O       2.07173      1.84026      8.79820        -0.312599     -0.046284     -0.928559
O       2.08706     13.61740      8.70322        -0.514822     -0.433739      0.438136
O      13.70526      1.94350      8.66622        -0.322154     -0.026781     -0.872290
O      13.49539     13.67576      8.79899         0.092362     -0.289867     -0.801189
O       1.79273      5.67503      0.43003         0.267978      0.654732     -0.990052
O       2.01545      6.01133     12.77174         0.149378     -0.159404     -0.213878
O      13.80769      5.63051      0.61227        -0.318740      0.524205     -0.803625
O      13.49332      5.90594     12.90835        -0.022624     -0.064362     -0.718108
O       2.01155      5.89564      4.74984        -0.085306      0.137002     -1.033949
O      13.47084      5.83294      4.70982         0.195683      0.303853     -0.804363
O       1.55473      5.91027      8.73747         0.576034     -0.214326      1.307324
O      13.58827      5.79497      8.81064        -0.148948      0.285661      1.592652
O       2.07369      9.66427      0.42400        -0.193022      0.022591     -1.013154
O       1.93737      9.92363     13.00122         0.104668     -0.358087     -0.747232
O      13.80037      9.83422      0.27817        -0.592676     -0.268384      0.970952
O      13.84284      9.81402     13.12078        -0.214023     -0.159832     -2.532948
O       1.88914      9.55973      4.58772         0.306038      0.290834      0.526838
O      13.50983      9.65057      4.66272         0.225851      0.040240      0.220739
O       1.84065      9.59112      8.66587         0.378267      0.725317      0.596159
O      13.66721      9.72531      8.60197        -0.249623      0.212496      0.408392
O       5.82416      1.75289      0.46909        -0.325149      0.393197      0.225225
O       5.86736      1.85249     13.06540        -0.625736      0.006077      0.209549
O       5.65930     13.48953      0.56014        -0.241559     -0.019385     -2.055389
O       5.91707     13.73500     12.76150        -0.845493     -0.548094      1.107801
O       5.92075      1.89720      4.53560        -0.315442      0.212094     -0.171471
O       6.03179     13.50574      4.50655        -0.540219      0.748146      0.565794
O       5.80316      1.85587      8.68706         0.054267      0.288394     -0.465870
O       6.05469     13.58106      8.51451        -0.939995      0.251036      0.480475
O       5.53742      5.82480      0.39950         0.369179      0.282031      0.148673
O       5.62418      5.75997     12.91062         0.010121      0.373849     -0.239856
O       5.77448      5.74106      4.56404        -0.106508      0.153760      0.693139
O       5.80780      5.55092      8.71965        -0.021938      0.385270     -1.679990
O       5.89489      9.91805      0.36683         0.047685     -0.524207      0.298060
O       5.68183      9.80153     12.82977         0.216177     -0.379484      0.271458
O       5.94604      9.43541      4.46926        -0.224964      0.622823      1.248759
O       5.95589      9.83533      8.72582        -0.675622     -0.452339     -0.855463
O       9.76851      1.58077      0.60558         0.357525      0.290058     -1.657036
O       9.75303      1.86592     12.97016         0.127055      0.377923      0.229859
O       9.84570     13.62317      0.41459         0.195700      0.108254      0.127944
O       9.78467     13.57222     12.93868        -0.221554      0.032076     -0.590540
O       9.75819      2.23494      4.65727        -0.571212     -0.876139      1.511410
O       9.66968     13.55932      4.45135         0.041108      0.286135      2.220832
O       9.68541      1.67651      8.82687        -0.273246      0.419136     -1.158280
O       9.56363     13.83250      8.84023         0.476628     -0.428119     -0.404601
O       9.76817      5.84943      0.40664        -0.487220      0.087689     -0.226378
O       9.86890      5.80546     13.04931        -0.390633      0.120051     -1.040660
O       9.64014      5.75831      4.55327        -0.000714      0.020696      0.225696
O       9.65032      6.09921      8.80021        -0.036578     -0.929795      0.360216
O       9.72140      9.77692      0.50191         0.031035     -0.368359     -0.805580
O       9.65525      9.66769     12.85832         0.214486      0.205600      0.799913
O       9.68602      9.73895      4.64819         0.370386      0.104594     -0.469884
O       9.49667      9.48013      8.86058         0.825204      0.847450      0.013884
O       3.84246      1.99035      2.52530         1.210010      0.185018      0.072092
O       3.78004      1.93822     15.07373         0.644930     -0.148951     -0.076195
O       3.79103     13.52040      2.75772        -0.184036      0.577721     -0.376886
O       3.82922     13.18215     14.78524         1.408090      1.386175      0.031181
O       0.12673      2.00529      2.55467        -1.414480     -0.622818      0.340386
O      15.57858      1.85729     14.95899         0.690478      0.319018     -0.205738
O       0.06350     13.64975      2.47184        -0.408929      0.454428      0.329045
O       0.02715     13.65500     15.06622        -0.765189      0.597983     -0.481875
O       3.85530      1.86993      6.67523         0.877141      0.021067     -0.013323
O       3.95245     13.56606      6.61048         0.169280     -0.032110     -0.134347
O       0.01530      1.81030      6.55899        -0.587984      0.002695      0.446741
O      15.52402     13.58958      6.96200         0.630695      0.183121     -0.347788
O       3.91556      1.91716     10.82978        -0.415648     -0.048847      0.229651
O       3.97820     13.59032     10.67614        -1.140848      0.094329      0.352387
O      15.59303      2.10767     10.82148        -0.183208     -0.647031     -0.079863
O      15.56184     13.70735     10.78174         0.839326     -0.624935     -0.523279
O       3.85259      5.77461      2.56081        -0.692192     -0.085475      0.077956
O       3.84099      6.03512     14.97795        -0.227077     -0.107580      0.027595
O       0.00336      5.90629      2.72459        -0.767405      0.500922     -0.206840
O      15.57111      5.82238     14.85663         0.868999      0.440023      0.149176
O       3.74460      5.68006      6.81454         1.844027      0.624809      0.041369
O      15.52339      5.56089      6.68044        -0.252119      0.923463     -0.291195
O       3.80315      5.96316     10.57282        -0.324979     -0.290301      0.549764
O      15.49725      5.86731     11.02278        -0.859103     -0.031543     -0.065080
O       3.94493      9.63763      2.59748        -0.378289      0.701822     -0.218487
O       3.94227      9.81414     14.96572        -0.428038     -0.403129     -0.068425
O      15.59486      9.61146      2.46708        -0.555221     -0.054518      0.010853
O      15.59206      9.68669     15.08707         0.777244      0.260625      0.260826
O       3.89734      9.56750      6.61933         0.235781      0.333508     -0.005249
O      15.58590      9.74855      6.60391        -0.321395      0.307785      0.298707
O       3.84719      9.70717     10.73581         0.110094     -0.007865      0.023008
O      15.54344      9.70211     10.80912         0.656457      0.114012     -0.227940
O       7.85665      1.84846      2.54606        -1.068930     -0.130788      0.137548
O       7.73946      1.80525     15.14076         0.124522      0.168935     -0.140334
O       7.76367     13.70727      2.31179         0.382476      0.062143      0.678213
O       7.84370     13.71079     14.99393        -0.546178     -0.418493      0.016680
O       7.76020      2.03284      6.79133         0.469461     -0.462766     -0.372101
O       7.77178     13.47333      6.60860         0.571675      0.907696     -0.415771
O       7.78188      1.83910     10.91195        -0.713060      0.653162     -0.260942
O       7.66282     13.64440     10.85426         1.488880      0.032246     -0.136905
O       7.62727      5.87513      2.42059         1.793950      0.058978      0.032315
O       7.70566      5.79151     14.99420         0.607820      0.233358      0.265904
O       7.70288      5.83175      6.69918         0.777532     -0.809326     -0.244938
O       7.73005      5.74561     10.96733         0.314685      0.408515     -0.454895
O       7.86211      9.65452      2.46763        -0.914287      0.013895      0.250336
O       7.88731      9.71031     15.04238        -0.745605      0.016680     -0.126429
O       7.77922      9.61217      6.68439        -0.854411      0.206190     -0.406669
O       7.73854      9.65396     10.97336        -0.425144      0.571011     -0.041931
O      11.75489      2.04028      2.70383        -0.543970     -0.599000     -0.322872
O      11.73921      2.05136     15.03483         0.065276     -0.409337      0.043605
O      11.74613     13.73553      2.49713         0.082725     -0.048355      0.045247
O      11.77897     13.58399     14.97528        -0.378229      0.627624     -0.112650
O      11.68048      1.78125      6.75362        -0.749685      0.968678     -0.105149
O      11.65686     13.69287      6.61972        -0.431335     -0.473629      0.442105
O      11.59478      1.71741     10.72025         1.106804      0.481060      0.198076
O      11.71391     13.55527     10.94173        -0.253699      0.629531     -0.815309
O      11.62486      5.63838      2.56697         0.245899      0.547657     -0.143899
O      11.66051      5.62122     15.09099         0.676038      1.038188     -0.214457
O      11.59331      5.93834      6.76141         0.121185     -0.281272     -0.263247
O      11.58538      6.08675     10.94294         0.709064     -0.977737     -0.273641
O      11.72566      9.99916      2.42650        -0.329637     -0.771581      0.019973
O      11.77561      9.70136     15.05753        -1.725882      0.061216      0.094963
O      11.61478      9.69198      6.75776         0.671589      0.239336     -0.176978
O      11.60695      9.82640     10.88955         1.147887     -0.260046     -0.410494
O       1.85309      4.04419      2.61929         0.811799     -1.642767     -0.027918
O       2.06141      4.02734     14.66125        -0.425296     -1.801542      0.370939
O       2.00482      0.00157      2.36287         0.111058      0.124903      0.417185
O       2.04841     15.58018     15.10082        -0.383423      0.239141     -0.613909
O      13.77009      3.91539      2.59623        -0.110158     -0.402176      0.326336
O      13.80700      3.91370     14.97191        -0.756551     -0.559031     -0.095776
O      13.66494      0.04484      2.66395         0.193955     -1.076414      0.164068
O      13.69419      0.00862     14.80894        -0.143001     -0.292502      0.128483
O       1.89501      3.79117      6.76661         0.177868     -0.259089     -0.171789
O       2.07401     15.49809      6.69200        -0.773001      0.360121      0.075042
O      13.52379      3.89952      6.83777        -0.126506     -0.500618     -0.162338
O      13.59265     15.59028      6.72889         0.557294      0.347502     -0.063163
O       1.91013      3.96165     10.90989         0.245981     -0.117453     -0.165023
O       1.96916     15.48839     10.75254         0.049218      0.831912      0.198562
O      13.36291      3.86745     10.90060         0.891240      0.542309     -0.647691
O      13.76405      0.12820     10.81034        -0.521720     -1.611334      0.081509
O       2.03169      7.77447      2.43838        -0.232698     -0.249448      0.448210
O       1.75858      7.85801     14.91798         0.974679     -0.855660      0.311658
O      13.33246      7.81453      2.33514         0.702928     -0.057778      0.295676
O      13.60400      7.77169     15.11420         0.136264     -1.382040      0.010940
O       1.75353      7.81974      6.75221         0.483639     -1.252901     -0.195462
O      13.74790      7.69677      6.79841        -0.395559      1.334362     -0.359733
O       1.83829      7.86465     11.00140         0.249533     -0.121376     -0.591615
O      13.59856      7.89416     10.85036        -0.020968     -0.685978      0.188404
O       1.89821     11.58356      2.46240         0.181542      1.445446      0.442531
O       1.77690     11.70461     15.20471         0.612037     -0.525755     -0.847037
O      13.68970     11.79361      2.44178         0.263006     -0.550847      0.103146
O      13.66261     11.79175     15.02572         0.333861     -0.493962      0.077120
O       1.96641     11.63644      6.73477        -0.084295     -0.401892      0.314384
O      13.60222     11.64511      6.69665        -0.070001      0.321719      0.557363
O       1.98531     11.62844     10.80440        -0.297649      0.426299     -0.462249
O      13.76810     11.60028     10.76643        -0.690602      1.248834     -0.436168
O       5.95384      3.86308      2.37700        -0.850025     -0.407912      0.457142
O       5.77345      3.90617     15.11649        -0.488051     -0.341454     -0.172182
O       5.71470     15.52195      2.54513        -0.074474      0.851848      0.317957
O       5.77417     15.42193     15.00688        -0.931384      0.705199      0.199645
O       5.85670      3.75970      6.60597        -0.321666      1.232074      0.354031
O       5.92893      0.01496      6.55964        -0.023453     -1.174443      0.056109
O       5.83492      3.83358     10.86432        -0.405011      0.147249     -0.136135
O       5.82803     15.59620     10.69641        -0.241516     -0.355895      0.061358
O       5.78300      7.80493      2.42038         0.160510     -0.625517     -0.197698
O       5.91717      7.82873     15.08378        -0.449883      0.254830     -0.340472
O       5.81463      7.59676      6.73194        -0.340231      0.921543     -0.487723
O       5.89782      7.79232     10.63129        -0.657414     -0.718517      0.366305
O       5.80795     11.67582      2.59505         0.142092     -1.230829      0.104411
O       6.11208     11.65726     14.84995        -0.596873      0.032081      0.175320
O       5.88380     11.53865      6.49136        -0.461217      0.087817      0.083448
O       5.88106     11.71567     10.69956        -0.253696     -0.532507      0.313493
O       9.65201      3.82073      2.26485        -0.405785      0.817534      0.579699
O       9.60933      3.76128     15.22226         0.615256      0.591245     -0.303107
O       9.79339     15.56287      2.73116        -0.228688      0.145922     -0.568758
O       9.86072     15.55221     14.98786         0.088517      0.149318      0.356949
O       9.79519      3.91390      6.88719        -0.488008     -0.120707     -0.333003
O       9.65438     15.54879      6.55793        -0.282008      0.522774      0.203561
O       9.73748      3.92107     10.89162         0.200901     -0.597003     -0.334318
O       9.60384     15.56479     11.05701         0.631893     -0.713297     -0.510560
O       9.87625      7.70884      2.43570        -0.357371      0.541167      0.189524
O       9.78801      7.74031     15.02089        -0.194439      0.470212     -0.015310
O       9.61584      7.79968      6.68986         0.484302     -0.917941     -0.448005
O       9.68485      7.79273     10.95374         0.029350     -0.391812      0.468912
O       9.67907     11.76543      2.63255         0.211325     -1.160637     -0.406311
O       9.89427     11.66191     14.93822        -0.600413     -0.487246      0.195944
O       9.68016     11.67897      6.73625         0.442816      0.219479     -0.157462
O       9.63831     11.67886     10.94845         0.046270      0.720675     -0.476796
