  # total energy = -7882.46964353 
CRSYTAL
PRIMVEC
    15.6080000000000005    0.0000000000000000    0.0000000000000000
     0.0000000000000000   15.6080000000000005    0.0000000000000000
     0.0000000000000000    0.0000000000000000   16.6239999999999988
PRESSURE
-0.851703 -0.949294 -0.166288 0.147162 -0.331487 -0.084234
PRIMCOORD
320 1
Pb       3.77794      3.82459      4.13314         0.231227     -0.123640     -0.111941
Pb       3.79548      3.78992     16.50699         0.339914      0.499261      0.637691
Pb       3.90801     15.46997      4.19348         0.308928      0.173309     -0.356457
Pb       4.00090      0.00065     16.57886        -0.061845     -0.567760      0.387542
Pb       0.03149      3.94714      4.13809        -0.247542     -0.341434     -0.260786
Pb       0.03062      3.90007      0.00764        -0.548184     -0.115950     -0.328038
Pb       0.04112     15.53114      4.25291        -0.002975      0.243330     -0.701974
Pb      15.60467     15.60541     16.58707        -0.096960      0.090825     -0.289621
Pb       4.03948      3.94119      8.21328        -0.298988     -0.396769      0.472899
Pb       3.88029     15.42485      8.24252         0.109804      0.657553      0.695431
Pb       0.02367      3.92574      8.29177        -0.512378     -0.213349     -0.415437
Pb      15.52405     15.53925      8.35263         0.125216      0.600417     -0.073719
Pb       3.90477      3.77732     12.39950        -0.525726      0.247256      0.144748
Pb       3.97580      0.12659     12.48190        -0.752790     -0.321196     -0.324553
Pb      15.57365      4.01083     12.51202         0.522578     -0.670937      0.211433
Pb       0.02297     15.47038     12.34430         0.205390      1.288852      1.124419
Pb       3.97060      7.72740      4.03002        -0.599541      0.260136      0.409816
Pb       3.89711      7.84025      0.01737         0.254933     -0.131736     -0.564431
Pb      15.44995      7.72911      4.12667         0.058694      0.425435     -0.182246
Pb      15.59303      7.74474     16.62093         0.031919     -0.133587     -0.769074
Pb       3.78938      7.79523      8.30916         0.059562      0.262276     -0.261682
Pb       0.01035      7.74468      8.22194        -0.193140      0.555747      0.133568
Pb       3.84384      7.74724     12.37790         0.252931      0.220244      0.466815
Pb      15.60321      7.74616     12.36659        -0.196602      0.019625      0.549880
Pb       3.92228     11.63326      4.20298        -0.122087      0.155720     -0.792452
Pb       3.85608     11.71731      0.06418         0.155264     -0.171228     -0.180713
Pb       0.01406     11.61716      4.15356         0.058035     -0.149656     -0.523302
Pb      15.59541     11.56576     16.53844         0.023278      0.291894      0.102235
Pb       3.92351     11.65372      8.43067        -0.400523      0.465098     -0.403571
Pb       0.07089     11.74774      8.30507        -0.066448     -0.486442      0.195347
Pb       3.78495     11.65937     12.49925         0.223393      0.252209     -0.307743
Pb      15.45241     11.84292     12.51361         0.306795     -0.622692     -0.096685
Pb       7.85189      3.96655      4.09284         0.281414     -0.253387      0.149236
Pb       7.82403      3.81027      0.03652        -0.209977      0.201194     -0.445980
Pb       7.89079      0.03770      4.21434        -0.455418      0.103511     -0.249722
Pb       7.79507     15.53216     16.52868        -0.186330      0.370504      0.241627
Pb       7.92126      3.83335      8.19654        -0.715641     -0.257956      0.017373
Pb       7.70768      0.01911      8.18444         0.072759      0.089710      0.147398
Pb       7.85485      3.90565     12.55547        -0.446695      0.386577     -0.527730
Pb       7.75905     15.58494     12.33715        -0.155207     -0.069337     -0.003332
Pb       7.91507      7.77664      4.17222        -0.185396     -0.138711     -0.186408
Pb       7.69231      7.57663      0.07225        -0.010851      0.264642     -0.363102
Pb       7.72468      7.72838      8.26684         0.020660      0.207541      0.218317
Pb       7.63625      7.95910     12.51190         0.213849     -0.591316     -0.565557
Pb       7.80537     11.62758      4.13158        -0.171353      0.118450     -0.155133
Pb       7.84123     11.70738      0.01313        -0.252035     -0.096930     -0.397465
Pb       7.94155     11.62628      8.42352        -0.681675      0.439821     -0.255604
Pb       7.77087     11.83894     12.46591        -0.230058     -0.318463     -0.173350
Pb      11.61323      3.84114      3.98468         0.431328      0.360836      0.529415
Pb      11.63216      3.75320      0.02840        -0.044962      0.622496     -0.400937
Pb      11.81570     15.59022      4.14319        -0.109388      0.239179     -0.128779
Pb      11.76806     15.59633     16.54973        -0.277099      0.126551     -0.164528
Pb      11.66242      3.79662      8.24506         0.671137      0.187433     -0.449421
Pb      11.82506     15.54991      8.37823        -0.273098      0.540256     -0.591222
Pb      11.58828      3.93853     12.32657         0.250680     -0.115651     -0.038640
Pb      11.55946      0.08634     12.50993         0.089296      0.142433     -0.499174
Pb      11.66470      8.07477      4.23967         0.339045     -0.699736     -0.024501
Pb      11.80426      7.75195     16.59782        -0.453999     -0.056092     -0.319224
Pb      11.71067      7.66636      8.38803        -0.021378      0.042412     -0.653853
Pb      11.79218      7.78827     12.45340        -0.383497     -0.582667     -0.905958
Pb      11.75336     11.89387      4.07594        -0.094699     -0.617649      0.252070
Pb      11.52117     11.64088      0.03746         0.539617      0.229641     -0.702549
Pb      11.56374     11.65139      8.31492         0.130892     -0.172088     -0.183113
Pb      11.68617     11.56159     12.53581        -0.327288      0.517597     -0.381280
Ti       1.87837      1.89456      2.17991         0.178804     -0.839568      0.959426
Ti       1.88234      1.81821     14.77945        -1.143558      0.941370     -2.155764
Ti       1.97549     13.57158      2.27958        -0.073962     -0.227327     -1.091940
Ti       1.94295     13.57541     14.74735        -0.028396      0.460545     -0.384902
Ti      13.61626      1.95199      2.10819         0.403303      0.365882      0.017041
Ti      13.54670      2.07170     14.65729         0.920727     -1.025850      0.544462
Ti      13.70970     13.61107      2.18239         0.166495      0.463239     -0.120784
Ti      13.60659     13.70239     14.70174        -0.155929     -0.098479      0.132597
Ti       1.91719      1.96392      6.44260        -0.494127      0.224037     -0.869626
Ti       1.87500     13.75879      6.39706         0.998699     -1.089402      0.685133
Ti      13.68379      1.96871      6.23235        -0.904609      0.121582      0.835137
Ti      13.63620     13.62079      6.41961        -0.054429      0.587749      0.015521
Ti       1.87584      1.99571     10.46113         0.277306     -0.511634      0.426185
Ti       1.87099     13.68224     10.60631         1.399953      0.253444     -0.769749
Ti      13.70595      1.90291     10.61616        -0.372846      0.792564     -0.172438
Ti      13.60780     13.66969     10.57597        -0.595910     -0.623651      0.291492
Ti       1.92475      5.76411      2.18428         0.136728      1.144870      0.939067
Ti       2.00006      5.80738     14.70600        -1.143638     -0.487831     -0.599144
Ti      13.64371      5.90424      2.08260        -0.873443     -0.590882      0.696808
Ti      13.60391      5.87189     14.60631         0.353185     -0.268180      1.062028
Ti       1.99376      5.89064      6.32105        -1.128399      0.309305     -0.532953
Ti      13.65426      5.90369      6.29214        -0.955434     -0.615465      0.843830
Ti       1.93158      5.80462     10.50171         0.381609     -0.566246      0.867784
Ti      13.69955      5.71751     10.45323        -1.296773      0.938454     -0.631945
Ti       1.92269      9.61272      2.19131        -0.282112      0.924062      0.636871
Ti       1.95395      9.71027     14.65949         0.175072     -0.362190      0.559929
Ti      13.55688      9.81155      2.11956         1.635138     -0.937066      0.426863
Ti      13.63828      9.78124     14.55084         0.058381      0.042275      1.703988
Ti       1.88087      9.81646      6.27655        -0.280325     -0.368379      0.276906
Ti      13.59015      9.80764      6.45953        -0.005491     -0.616386     -0.592402
Ti       1.82372      9.74848     10.61737         0.980042      0.275901     -0.287417
Ti      13.59280      9.71961     10.45658         0.079189     -0.251381     -0.425803
Ti       5.82649      1.93667      2.27363        -0.335764     -0.612138     -0.808097
Ti       5.74148      1.99798     14.67671         1.207654      0.066811     -0.738990
Ti       5.88841     13.62799      2.18004        -1.028748      0.590939     -0.318239
Ti       5.87486     13.67609     14.62573        -0.402751     -0.228134      0.418748
Ti       5.76227      1.95787      6.35370         0.439351     -0.908421      0.817212
Ti       5.89636     13.60937      6.42425        -0.777518      0.898775      0.027050
Ti       5.82538      1.97683     10.50008        -0.722749     -0.078401     -0.443329
Ti       5.77449     13.64539     10.53417        -0.184236      0.103717     -0.328686
Ti       5.86880      5.74933      2.28818        -0.076832      0.759757     -1.901944
Ti       5.79160      5.87879     14.58108         0.332657      0.372136      0.033648
Ti       5.88229      5.91250      6.41208        -0.562947      0.006848      0.323148
Ti       5.82076      5.82840     10.55905         1.213122     -0.314575     -0.542489
Ti       5.83089      9.66855      2.14329        -0.632939      0.574683      0.320006
Ti       5.89916      9.82448     14.69424        -0.755519     -0.864768      1.372190
Ti       5.68319      9.86510      6.41343         1.329009     -0.555430      0.397151
Ti       5.75572      9.71959     10.46954         0.143020      0.588944      0.779413
Ti       9.69654      1.91099      2.16888         0.266045      0.163446     -0.247145
Ti       9.63144      1.95138     14.61855         0.675373      0.260791      2.046848
Ti       9.68642     13.71537      2.13943         0.371677     -0.440117      0.244241
Ti       9.71456     13.63745     14.64652         0.492043     -0.028444      0.454305
Ti       9.78014      1.84386      6.25274         0.165205      0.439686      0.783712
Ti       9.75301     13.65458      6.33402        -0.065446      0.012940      1.363110
Ti       9.62654      1.98434     10.38638         1.251482     -0.544830     -0.017906
Ti       9.76209     13.66487     10.50763        -0.340921      0.196703      1.290249
Ti       9.83745      5.88858      2.20563        -0.036538     -0.130160      0.230917
Ti       9.66425      5.92752     14.55349         0.591254     -1.046122      0.374345
Ti       9.70591      5.79151      6.37015         1.852369      0.323115     -0.769595
Ti       9.71075      5.79844     10.36940        -0.315844      1.593657      1.239557
Ti       9.73044      9.83067      2.26210        -0.027569     -0.567731      0.137792
Ti       9.72331      9.64049     14.67654        -0.341048      0.949620      0.336087
Ti       9.59840      9.71446      6.37799         1.130725     -0.272254      0.163271
Ti       9.65186      9.76574     10.60057         0.218950     -1.001161      0.330409
O       1.89952      1.89676      0.42958         0.433893      0.024270     -0.900362
O       2.00512      1.87075     12.96960        -0.156253      0.148081      0.482273
O       1.96324     13.44613      0.46841        -0.028841      0.273345     -0.462278
O       1.98012     13.63051     12.94997        -0.551444      0.152540      0.268492
O      13.57086      1.89440      0.29041        -0.276184     -0.348185      1.218911
O      13.48106      2.02993     12.90508         0.123604     -0.051543     -1.234438
O      13.59261     13.61583      0.42501         0.261271      0.251844     -0.206193
O      13.67424     13.67635     12.91314        -0.181533     -0.234358     -0.475936
O       1.78177      1.90017      4.59953         0.287781      0.536499      0.262934
O       1.79568     13.73683      4.63292         0.437066     -0.025560     -0.528729
O      13.50894      2.01124      4.46012         0.646450     -0.146384     -0.275835
O      13.67852     13.69058      4.65234        -0.219458     -0.426576     -0.657720
O       1.83471      2.07214      8.70263        -0.188381     -0.105408     -0.966051
O       1.79792     13.82202      8.81831         0.137224     -0.921877     -0.433665
O      13.64611      1.84765      8.86447        -0.036783      0.097957     -0.552934
O      13.71262     13.80189      8.81552        -0.269900     -0.308025     -0.754584
O       1.98788      5.79069      0.47540        -0.124496     -0.022977     -1.803562
O       2.01895      5.52530     12.91277        -0.422179      1.050647      0.533642
O      13.52648      5.91203      0.31393         0.234032      0.479988      0.083297
O      13.65836      5.85698     12.81450        -0.432672     -0.102542      0.352380
O       1.70850      5.99701      4.52970         0.719551     -0.662650      0.302406
O      13.66849      5.84115      4.49973         0.237770     -0.005213      0.505494
O       1.85960      5.89140      8.75938         0.110179      0.011542     -1.080630
O      13.71690      5.62248      8.63327        -0.239166      0.902221      1.001055
O       1.87530      9.83607      0.41431         0.179256     -0.255504     -0.286976
O       1.87733      9.62488     12.93072         0.455665      0.151428     -1.276000
O      13.47318      9.87902      0.35722         0.529000     -0.465868     -0.290285
O      13.44351      9.81670     12.79267         0.301956     -0.436052     -0.496935
O       1.89240      9.77728      4.47964        -0.066923     -0.147035      0.966171
O      13.68138      9.78752      4.64169        -0.330915     -0.066735      0.493749
O       1.90874      9.73625      8.84344         0.101332     -0.089080     -0.104484
O      13.65314      9.70876      8.65899        -0.304290      0.164975      0.641228
O       5.84839      2.06082      0.42912        -0.068055     -0.558326      0.682211
O       5.75971      1.93038     12.83588        -0.175000      0.167274      1.031349
O       5.95651     13.85248      0.38345        -0.379387     -0.456679      0.661115
O       5.82128     13.68929     12.82842         0.221573     -0.071841      0.501511
O       5.72000      1.90524      4.62564         0.165116      0.396599     -1.404186
O       5.61460     13.62953      4.66047         0.742535     -0.369425     -0.696120
O       5.75319      1.97751      8.71205         0.211871     -0.026848      0.185961
O       5.70542     13.76217      8.71617         0.138074     -0.178980      0.877674
O       5.98313      5.90847      0.39571        -0.405990     -0.332011      1.559698
O       5.83564      5.81966     12.77379        -0.236566      0.179155      0.474794
O       5.80930      5.87282      4.67039         0.071671     -0.032734     -0.978021
O       5.98573      5.83021      8.72271        -0.691229      0.045539     -0.178371
O       5.79460      9.57183      0.36511         0.219257      0.285966      0.871651
O       5.79450      9.73588     12.95133         0.405187      0.113155     -0.839643
O       5.68791      9.89736      4.63816         0.609480      0.064389     -0.340378
O       5.73614      9.84354      8.68104        -0.036719     -0.244781      0.914704
O       9.69237      2.00855      0.33821        -0.103155     -0.002525      0.790011
O       9.65305      2.06174     12.88969         0.221041     -0.362070     -1.482583
O       9.60632     13.51330      0.36792         0.315306      0.596627      0.268306
O       9.71404     13.79571     12.89211        -0.035096     -0.165580     -0.592420
O       9.75127      1.94641      4.46458        -0.186844     -0.452983      0.315727
O       9.67453     13.72087      4.60703         0.076938     -0.438781     -1.210579
O       9.71444      1.99352      8.58982        -0.394431     -0.177474      1.056802
O       9.84751     13.61039      8.78256        -0.256393     -0.247369     -1.370139
O       9.72561      5.86848      0.44514        -0.164545     -0.070784     -0.402722
O       9.79171      5.89968     12.76889        -0.380997     -0.003040      0.697363
O       9.87609      5.77477      4.57206        -0.824530      0.117245     -0.034786
O       9.85930      5.81995      8.57845        -0.963638     -0.175278      0.357657
O       9.76607      9.87283      0.52284        -0.097473     -0.139348     -0.485563
O       9.63960      9.75351     12.89576         0.363156     -0.244091     -0.420250
O       9.68040      9.71165      4.57796        -0.132526      0.265650     -0.400868
O       9.66716     10.07348      8.84145        -0.024387     -0.612011     -0.662271
O       3.89668      2.08429      2.59244        -0.194219     -0.220126     -0.361168
O       3.84783      1.86838     15.01544         0.839037      0.445493      0.092322
O       3.84644     13.63761      2.51277         0.588939      0.152899      0.278180
O       4.03805     13.58948     15.04766        -1.602560      0.351102      0.006483
O      15.58093      1.97297      2.34271        -0.460583     -0.241054      0.545427
O      15.55465      1.86615     14.98689         0.122688     -0.201597      0.208971
O       0.02000     13.59276      2.53821        -1.015884      0.411651      0.073228
O      15.56844     13.72266     15.02639         0.257309     -0.468015     -0.129311
O       3.79570      1.94969      6.74069         0.380412      0.358948     -0.347140
O       3.79432     13.60749      6.81090        -0.484400      0.042484     -0.478586
O      15.49894      1.98931      6.65822         0.862061      0.029945     -0.066154
O       0.03010     13.53711      6.71593        -1.438225      0.805503      0.173691
O       3.73648      1.91607     10.76031         1.400977      0.349050      0.436964
O       3.79766     13.64527     10.94787         0.479370      0.002457     -0.544627
O       0.01828      2.04882     10.89893        -1.562037     -0.599342      0.204026
O      15.54182     13.65153     10.90390         0.011870     -0.388585      0.144384
O       3.94864      5.75680      2.56487        -0.374529     -0.176732      0.090979
O       3.83933      5.78611     14.99291         0.481478     -0.037987      0.134379
O      15.51506      5.96009      2.37724         0.853832     -0.233075      0.133523
O      15.56706      5.73992     15.05986         0.311823      0.792398     -0.216565
O       3.88230      6.00061      6.69237         0.128268     -0.569264      0.021358
O      15.57498      5.97159      6.69224         0.064736     -0.605515     -0.475870
O       3.90866      5.81475     10.75610        -0.794443     -0.192978     -0.145648
O      15.51136      5.83413     10.93652         1.092793     -0.022081     -0.619737
O       3.92802      9.75305      2.54825        -0.369372     -0.139921     -0.319631
O       3.87033      9.73863     15.00841        -0.241301      0.310176      0.113168
O      15.59032      9.66950      2.44237         0.092165      0.038775      0.036721
O      15.57286      9.77714     14.83813        -0.496446      0.018167      0.562060
O       3.84333      9.80855      6.67438        -0.867361      0.253552      0.217643
O      15.54858      9.73241      6.76358         0.368040      0.201020     -0.506213
O       3.84807      9.73755     10.96558         0.274086     -0.110425     -0.457313
O       0.01660      9.57250     10.93801        -1.305547      0.545378     -0.380431
O       7.81261      1.86072      2.54691        -0.722753      0.160988      0.124890
O       7.79582      2.02626     14.86588        -1.063694     -0.164026      0.409769
O       7.74392     13.58288      2.41710         0.471273      0.393365      0.849182
O       7.76189     13.68719     14.93066         0.336269     -0.310074      0.097834
O       7.73812      1.84847      6.59751         0.136602      0.040688     -0.001181
O       7.77292     13.77554      6.71325         0.528113     -0.651735     -0.272525
O       7.69409      1.96824     10.77435         1.009527     -0.111190      0.017307
O       7.74456     13.66701     10.77260        -0.346568      0.379788      0.221700
O       7.80135      5.92149      2.56443        -0.035325     -0.136922      0.365858
O       7.70729      5.97114     14.78355         0.691698     -0.173560      0.308885
O       7.76085      5.86277      6.54823         0.138685     -0.109600      0.512637
O       7.78429      5.87272     10.75050         0.065695     -0.097352      0.186375
O       7.78940      9.67209      2.63619        -0.331919      0.511200     -0.417288
O       7.79459      9.73959     15.09562         0.133958     -0.147140     -0.381347
O       7.74883      9.79576      6.75280         0.010045      0.206533     -0.107808
O       7.69300      9.75355     10.89243        -0.341958      0.273808     -0.287728
O      11.62030      1.90006      2.44538         0.747996      0.120047     -0.295329
O      11.62203      2.01007     14.96191        -0.229967     -0.103758      0.044494
O      11.66764     13.55984      2.47701         0.155089      0.296329      0.086561
O      11.64372     13.56988     15.00105         0.481312      0.569740     -0.041418
O      11.65215      1.85283      6.61664         0.097044      0.089122      0.073795
O      11.71207     13.72174      6.72243        -0.288373     -0.451524     -0.163227
O      11.56818      1.98440     10.78776         0.002546     -0.134249      0.275987
O      11.67302     13.55878     10.85025         0.586594      0.377809      0.114140
O      11.68418      5.71514      2.51504         0.217138      0.516215     -0.484801
O      11.69701      5.89530     14.91769        -0.090761      0.072865     -0.224628
O      11.64629      5.83708      6.71521         0.898616     -0.083106     -0.218364
O      11.62227      5.89029     10.76950         0.449718     -0.190017     -0.105000
O      11.75016      9.85569      2.55687        -1.862872      0.061410      0.310177
O      11.62729      9.65180     15.02263         0.392530      0.295649     -0.532180
O      11.54316      9.61967      6.67737         0.935895      0.626490      0.308283
O      11.64281      9.73752     10.72183         0.205950      0.519442      0.500501
O       1.88388      3.91787      2.48092        -0.057937     -0.713410      0.684878
O       1.80850      3.82594     15.10311         0.974903      0.183529     -0.065130
O       2.01146     15.58660      2.45633        -0.508818      0.365529      0.311340
O       1.95389     15.56009     15.04270         0.166797     -0.842268      0.494590
O      13.61830      3.91891      2.22953         0.031129     -0.665287      0.650648
O      13.73539      3.87441     15.09151        -0.788098      0.822799     -0.583370
O      13.59061     15.59051      2.62334         0.348725     -0.280314     -0.804667
O      13.54193      0.02702     14.93114        -0.200447     -0.743978      0.261821
O       1.90878      3.99830      6.51755         0.054368     -0.080132      0.337870
O       1.81787      0.10154      6.64666         0.017098     -1.447232      0.222239
O      13.59187      3.80414      6.71745         0.069488      0.797453     -0.575904
O      13.63836     15.60514      6.64296         0.302667     -0.272549      0.169406
O       1.77942      3.89244     10.78924         0.594875      0.579915      0.105613
O       1.82386     15.58934     10.72708        -0.220655      0.316093      0.740589
O      13.56078      3.89921     10.78367         0.090391     -0.346574      0.417065
O      13.68244      0.01026     10.82542        -0.382345     -0.611492      0.618242
O       2.08845      7.71414      2.38789        -0.292702      0.802200      0.159264
O       1.92450      7.76468     15.04205        -0.188469     -0.354379     -0.017534
O      13.56955      7.85388      2.51042        -0.305047     -0.293644     -0.307152
O      13.75139      7.82064     14.92809        -0.542914     -0.110320     -0.063724
O       1.92798      7.86802      6.67637         0.079377      0.030820      0.214812
O      13.56316      7.79746      6.65895         0.171688     -0.448070     -0.029491
O       1.97101      7.66330     10.95623        -0.381515      0.687662     -0.241423
O      13.58442      7.75903     10.70180         0.021814      0.292352      0.440421
O       1.94376     11.65779      2.60152        -0.071455     -0.031473      0.095517
O       1.90081     11.67573     14.87429         0.123511      0.341688      0.469411
O      13.68729     11.65429      2.50848         0.011401      1.279332      0.388005
O      13.59584     11.67321     14.86570         0.121772      0.118351      0.007552
O       1.82712     11.71824      6.75145         0.527834     -0.569330     -0.432116
O      13.56804     11.71614      6.70385        -0.009085     -0.029440      0.207095
O       1.89723     11.68706     10.88517        -0.317665     -0.297726      0.082175
O      13.73385     11.64272     10.76023        -0.203649      0.513213      0.336125
O       5.93925      3.89115      2.49406         0.142273     -0.012133      0.574275
O       5.81277      3.93414     14.94974        -0.132551     -0.596842     -0.115279
O       5.77561      0.01032      2.62885         0.066443      0.061944     -0.251980
O       5.90651      0.07320     15.01132        -0.339493     -0.290533     -0.358090
O       5.85966      3.83898      6.70265        -0.343714      1.183785     -0.199927
O       5.73810     15.54399      6.61727        -0.020326      0.962848      0.483872
O       5.79363      3.88011     10.90558        -0.017991     -0.180875     -0.470632
O       5.74531      0.03418     10.90106         0.306086     -0.172095     -0.406375
O       5.72939      7.79656      2.56025         0.817224     -0.128268     -0.157015
O       5.73135      7.78612     14.94604         0.177700     -0.302749     -0.033272
O       5.86005      7.95105      6.75436        -0.185516     -1.387607     -0.227014
O       5.78184      7.78145     10.80962        -0.007772      0.618600     -0.059926
O       5.68596     11.74363      2.32765         0.834254     -0.745007      0.405992
O       5.88278     11.68301     15.11389         0.072072      0.625685     -0.431761
O       5.84606     11.80496      6.80965        -0.254613     -1.543932     -0.090682
O       5.77758     11.72239     10.80599        -0.120197     -0.165005     -0.039014
O       9.69435      3.83431      2.53287        -0.275336      0.454349     -0.324066
O       9.60416      4.00316     14.97602         0.327848     -0.211872     -0.282552
O       9.75438     15.57308      2.50931        -0.284191     -0.223139     -0.192133
O       9.70436     15.56762     15.04486         0.315003      0.727558     -0.479913
O       9.69493      3.82412      6.61553        -0.142364      0.157324     -0.113848
O       9.70797     15.55747      6.64307        -0.030122      0.295135      0.013150
O       9.63279      3.94632     10.72926         0.094382     -0.912684      0.063615
O       9.70831      0.02917     10.76377        -0.111907      0.262145      0.199288
O       9.81751      7.77649      2.51828        -0.071423      0.980289      0.292391
O       9.69039      7.79742     15.05648         0.108455     -0.301895     -0.312184
O       9.66717      7.73650      6.61039        -0.452857      0.714315      0.305682
O       9.64392      7.86809     10.65777         0.187533      0.015272      0.114091
O       9.65143     11.77789      2.52583         0.175237     -1.067672      0.525698
O       9.75746     11.70460     14.95298        -0.412795     -0.439765     -0.026797
O       9.72611     11.68198      6.68573        -0.090803      0.613003     -0.193981
O       9.55619     11.79893     10.99340         0.762827     -0.681288     -0.338464
