  # total energy = -7891.25552082 
CRSYTAL
PRIMVEC
    15.6080000000000005    0.0000000000000000    0.0000000000000000
     0.0000000000000000   15.6080000000000005    0.0000000000000000
     0.0000000000000000    0.0000000000000000   16.6239999999999988
PRESSURE
-1.63897 -1.57854 -0.297245 -0.02331 -0.007324 0.033248
PRIMCOORD
320 1
Pb       3.88984      3.88751      4.12851        -0.195610      0.133753      0.037056
Pb       3.89309      3.89459     16.60723         0.110617      0.115205     -0.149457
Pb       3.88178     15.58946      4.12197         0.124934     -0.098717      0.017392
Pb       3.87622     15.58853     16.59676        -0.054864     -0.135532      0.014423
Pb      15.59252      3.87905      4.12271         0.251770      0.119953      0.190530
Pb      15.58260      3.87968     16.60002        -0.012221      0.006715     -0.078129
Pb      15.58251     15.58904      4.11500         0.080562      0.063813      0.150391
Pb      15.58414     15.58556     16.59925        -0.028172     -0.055851     -0.200783
Pb       3.87383      3.88238      8.28774        -0.166697     -0.155033     -0.007065
Pb       3.88416     15.59360      8.29024        -0.212870     -0.048284     -0.226567
Pb      15.58570      3.87947      8.28270         0.199422     -0.040204     -0.034079
Pb      15.59807     15.58876      8.27921         0.175222     -0.094220     -0.026905
Pb       3.88457      3.88569     12.43545         0.076822      0.054887     -0.178315
Pb       3.87859     15.58107     12.42874         0.114083     -0.074696     -0.088221
Pb      15.58529      3.87634     12.44142         0.273177     -0.379376     -0.187420
Pb      15.58351     15.60453     12.44706        -0.020474      0.162120     -0.109492
Pb       3.88060      7.78820      4.13950        -0.326538     -0.259856     -0.102600
Pb       3.87721      7.78196     16.60277         0.109326     -0.054550     -0.356115
Pb      15.60160      7.78853      4.13270        -0.010146     -0.048664     -0.242168
Pb      15.59262      7.78285     16.59988        -0.192063      0.147034      0.133287
Pb       3.89599      7.77981      8.26918        -0.132186     -0.001969     -0.024774
Pb      15.57884      7.78538      8.29643         0.141898     -0.138720     -0.233769
Pb       3.88346      7.78926     12.44214         0.169352     -0.044301     -0.065807
Pb      15.59182      7.78844     12.44634        -0.017845      0.227604     -0.066761
Pb       3.87966     11.68431      4.12514         0.082001      0.168346     -0.029162
Pb       3.88540     11.67909     16.58827        -0.140579     -0.009762     -0.208565
Pb      15.58761     11.68412      4.12590         0.159438     -0.233197     -0.046703
Pb      15.58677     11.69421     16.59224         0.011263     -0.205460     -0.000052
Pb       3.87909     11.68410      8.27474        -0.408226     -0.064719     -0.176294
Pb      15.58637     11.68089      8.28708         0.150337      0.234797      0.190170
Pb       3.89301     11.68589     12.43380        -0.000673      0.079355     -0.206818
Pb      15.59995     11.67783     12.43106        -0.073154      0.008554     -0.199869
Pb       7.79019      3.87658      4.13132         0.003088      0.041299     -0.118123
Pb       7.79088      3.88899     16.60729         0.053676      0.218658     -0.088859
Pb       7.78820     15.58033      4.11842        -0.037815     -0.026583     -0.071354
Pb       7.79196     15.60105     16.60238         0.152154     -0.012399     -0.024408
Pb       7.77209      3.88832      8.28504         0.079869      0.055772     -0.018527
Pb       7.78737     15.58422      8.29000        -0.234671      0.087723     -0.200974
Pb       7.78058      3.87884     12.43882        -0.267557     -0.057861     -0.183792
Pb       7.78025     15.58727     12.44390        -0.257188     -0.016016     -0.073582
Pb       7.78096      7.78825      4.13017         0.050942     -0.069438     -0.083186
Pb       7.79395      7.79757     16.59951        -0.133325     -0.112853     -0.209738
Pb       7.78632      7.78352      8.28303         0.011512     -0.011167     -0.057482
Pb       7.79666      7.77326     12.42649        -0.318162     -0.026428      0.132678
Pb       7.79924     11.68562      4.13996        -0.259847      0.007098     -0.298034
Pb       7.78082     11.68571     16.60296         0.031265     -0.152875     -0.160357
Pb       7.77412     11.69136      8.27314         0.155056     -0.153751     -0.046231
Pb       7.78062     11.67390     12.43622        -0.172929     -0.005909      0.074630
Pb      11.69008      3.88838      4.13348        -0.129712     -0.042113      0.049504
Pb      11.69360      3.89624     16.60519        -0.113010     -0.035615     -0.279251
Pb      11.67230     15.58414      4.12587        -0.089142      0.049878     -0.301765
Pb      11.67889     15.58607     16.60463         0.075396      0.028405     -0.247062
Pb      11.69726      3.88918      8.28451        -0.125089      0.294144     -0.103331
Pb      11.68671     15.59876      8.27864         0.084421     -0.205202      0.198833
Pb      11.70045      3.87988     12.44644        -0.225438     -0.327297     -0.049957
Pb      11.70140     15.58537     12.43960         0.015007      0.054692     -0.188545
Pb      11.68578      7.76232      4.12007         0.171736      0.194287     -0.088565
Pb      11.66742      7.78397     16.59754         0.027511      0.001796      0.002245
Pb      11.67966      7.79592      8.27664         0.111185     -0.007259     -0.254568
Pb      11.67807      7.78423     12.44936         0.046559      0.318121     -0.012474
Pb      11.67741     11.66904      4.13680        -0.124316     -0.274382     -0.342473
Pb      11.69525     11.69354     16.59354        -0.030948     -0.187809     -0.078988
Pb      11.70904     11.69963      8.28825        -0.035440     -0.195640      0.127973
Pb      11.68336     11.69579     12.44123         0.069478     -0.091733     -0.478206
Ti       1.92841      1.94671      2.21227         0.030446     -0.038087      0.168949
Ti       1.92124      1.95195     14.69953         0.202762     -0.537520     -0.930309
Ti       1.90035     13.65386      2.21941         0.794871     -0.317726     -0.493639
Ti       1.90184     13.63377     14.69515         0.265651     -0.003492      0.843646
Ti      13.63084      1.93271      2.22611        -0.064261     -0.375028      0.363108
Ti      13.65074      1.92025     14.66779        -0.551412     -0.307807      0.047054
Ti      13.65522     13.62798      2.20680        -0.643673      0.049555      0.229088
Ti      13.62265     13.61548     14.66955         0.236359      0.368139      0.811714
Ti       1.91995      1.89796      6.36907         0.095229      0.385984      0.029307
Ti       1.94124     13.63437      6.38290        -0.031975     -0.117013      0.349533
Ti      13.59956      1.94449      6.38633         0.728445     -0.043827     -0.165238
Ti      13.61205     13.64642      6.37279         0.644807     -0.152856      0.272472
Ti       1.95317      1.89089     10.54142        -0.359395      0.554662     -0.600828
Ti       1.90620     13.62466     10.54021         0.515108     -0.057345     -0.768567
Ti      13.61020      1.93607     10.49862         0.440853     -0.415589      0.812824
Ti      13.63876     13.64365     10.53880        -0.000734     -0.086301     -0.054394
Ti       1.90998      5.83625      2.19632         0.138740      0.250447      0.992624
Ti       1.92381      5.83090     14.67118         0.492510      0.327734     -0.212523
Ti      13.60587      5.79130      2.24387         0.361733      1.012495      0.215703
Ti      13.64356      5.82864     14.67989        -0.030687      0.225973      1.116303
Ti       1.93235      5.82010      6.40057        -0.234641      0.005084     -0.196885
Ti      13.64276      5.83135      6.40772         0.041191      0.248017     -0.387319
Ti       1.87522      5.85885     10.54072         0.841858     -0.549808     -0.563519
Ti      13.60505      5.83422     10.57835         0.226703      0.131731     -1.451822
Ti       1.94847      9.74357      2.21473        -0.574602     -0.338499      0.228445
Ti       1.90460      9.73137     14.69461         0.320748     -0.077728      0.517560
Ti      13.62513      9.74515      2.19254         0.320770     -0.649765     -0.704267
Ti      13.63841      9.74043     14.69968        -0.055280     -0.333988      0.872290
Ti       1.92109      9.72818      6.37783         0.135664     -0.233585      0.074635
Ti      13.66165      9.72223      6.37446        -0.545680     -0.177449      0.246765
Ti       1.91786      9.72102     10.53281         0.328280      0.435645     -0.709729
Ti      13.63698      9.73381     10.49928        -0.070885      0.402883      0.376084
Ti       5.83345      1.93345      2.22450        -0.032379     -0.068477     -0.266399
Ti       5.82356      1.90494     14.71793        -0.235730      0.274034     -0.897349
Ti       5.83108     13.63575      2.21513        -0.231871     -0.308915      0.778656
Ti       5.83456     13.62924     14.68546        -0.229192     -0.011864     -0.952337
Ti       5.82694      1.94470      6.37302        -0.138474     -0.641293      0.521185
Ti       5.84640     13.63440      6.39411        -0.546351      0.468777     -1.732170
Ti       5.83610      1.90566     10.51860        -0.288183      0.344010      0.138216
Ti       5.84193     13.62629     10.47865        -0.632487      0.109466      2.060604
Ti       5.80148      5.84168      2.21167         0.016978     -0.283996      0.126246
Ti       5.83758      5.80995     14.67227        -0.366078      0.610389      0.752574
Ti       5.83515      5.80195      6.38354        -0.441594      0.280886     -0.866684
Ti       5.80043      5.83923     10.51121         0.054493     -0.258168      0.275423
Ti       5.82219      9.71084      2.18894         0.018986      0.376663      0.916249
Ti       5.82691      9.74962     14.67489        -0.187507     -0.695025     -0.231547
Ti       5.83443      9.73682      6.35633        -0.160213     -0.077634     -0.063219
Ti       5.84778      9.74686     10.52612        -0.562076     -0.352802      0.534630
Ti       9.74550      1.94466      2.21971        -0.227864     -0.470392      0.619343
Ti       9.71600      1.90991     14.68380         0.652465      0.052418      0.204589
Ti       9.72802     13.61916      2.20740         0.080991      0.268856      0.957526
Ti       9.72118     13.61873     14.67888         0.245577      0.210538      1.003510
Ti       9.72241      1.91241      6.40395        -0.287706      0.564540     -1.259859
Ti       9.72315     13.62981      6.35654        -0.158335     -0.159534     -0.265522
Ti       9.71222      1.92548     10.53214         0.225057      0.030758      1.655326
Ti       9.69390     13.64392     10.54298         0.634184     -0.202912     -0.017180
Ti       9.70970      5.81536      2.22741         0.097294      0.171380     -0.686550
Ti       9.73763      5.83680     14.68616        -0.127345     -0.082082      0.294881
Ti       9.71790      5.85375      6.37063         0.564364     -0.150877     -0.427157
Ti       9.73906      5.85277     10.52848        -0.704656     -0.415268      0.074452
Ti       9.71288      9.70842      2.21987         0.310894      0.142572      0.390702
Ti       9.72817      9.74189     14.67412        -0.107128     -0.223641     -0.174403
Ti       9.71767      9.73900      6.39289         0.603496     -0.384476      0.008913
Ti       9.71091      9.70967     10.55323         0.320396      0.656036      0.101718
O       1.91866      1.97274      0.43225         0.009822     -0.099161     -0.269808
O       1.90082      1.89414     12.87365         0.083523      0.210712      1.059334
O       1.95935     13.65572      0.41380        -0.170757     -0.087979      0.654780
O       1.93921     13.64791     12.95703        -0.067369     -0.093936     -1.068456
O      13.62218      1.91965      0.46084         0.096424      0.017473     -0.000643
O      13.60550      1.91614     12.89486         0.096577      0.115969     -0.149739
O      13.63325     13.66623      0.44196         0.124011     -0.133704     -0.030445
O      13.66887     13.64692     12.93280        -0.166984     -0.203921     -0.935933
O       1.96936      1.94597      4.59046        -0.207768     -0.177340     -0.028048
O       1.87661     13.61919      4.60786         0.162341     -0.008317     -0.315598
O      13.63295      1.98535      4.60443        -0.079631     -0.097755      0.310241
O      13.67094     13.67102      4.59909        -0.128266     -0.294035      0.158019
O       1.95764      1.92215      8.72269        -0.064904      0.020980      0.484555
O       1.93923     13.62759      8.75148         0.080482      0.115706      0.249120
O      13.66252      1.94998      8.74763        -0.157846     -0.106884     -0.762732
O      13.62787     13.61369      8.77036        -0.066411      0.273951     -0.479252
O       1.92230      5.81801      0.44801        -0.041026     -0.158136     -0.756281
O       1.96012      5.85023     12.88797        -0.207901     -0.003417     -0.036379
O      13.67276      5.83411      0.47621        -0.079972     -0.252563     -0.193209
O      13.63220      5.86139     12.93558        -0.038502     -0.133449     -1.154594
O       1.94667      5.86783      4.62612        -0.029664     -0.250268     -0.259059
O      13.62886      5.83617      4.61403        -0.064278     -0.053936     -0.099112
O       1.88273      5.86706      8.72416         0.051798     -0.169275      0.932830
O      13.63351      5.82714      8.75099        -0.051145      0.023277      1.295941
O       1.97661      9.71514      0.45060        -0.177025      0.115387     -0.528308
O       1.95942      9.77814     12.93398        -0.242402     -0.146511     -0.497542
O      13.72613      9.75107      0.37550        -0.491803     -0.016495      0.809290
O      13.67846      9.75279     12.94325        -0.101657     -0.033371     -0.643644
O       1.94033      9.70075      4.59802        -0.146700      0.149509      0.077809
O      13.60095      9.70200      4.61193         0.168179      0.255455     -0.066668
O       1.90508      9.75316      8.73481         0.133357     -0.289733      0.460825
O      13.66239      9.73547      8.74283        -0.144127     -0.026920     -0.422684
O       5.79358      1.90332      0.42397         0.326499      0.084638      0.467735
O       5.83016      1.93699     12.89410         0.107956     -0.108548      0.909409
O       5.79168     13.63446      0.44771         0.230167     -0.072950     -0.521633
O       5.83903     13.66697     12.87273         0.091960     -0.142721      0.831779
O       5.85985      1.90513      4.62465        -0.081054      0.151373     -0.790794
O       5.86250     13.61849      4.54759        -0.028819      0.000912      1.063377
O       5.83399      1.91944      8.73506         0.027567     -0.011295      0.003182
O       5.86878     13.64871      8.76708         0.071367     -0.090061     -1.797544
O       5.79314      5.84323      0.44015         0.101733     -0.128223      0.054206
O       5.79099      5.82710     12.92564         0.193256     -0.019868     -0.697904
O       5.80584      5.80591      4.55493         0.243618      0.129538      1.187537
O       5.82779      5.77964      8.73861         0.122320      0.148129     -0.532711
O       5.86275      9.75751      0.44900        -0.169173      0.010079     -0.693029
O       5.82328      9.76010     12.88590        -0.001369     -0.106381      0.140160
O       5.88368      9.70918      4.58724        -0.257649     -0.025962      0.226416
O       5.82126      9.74743      8.76525         0.282146      0.025139     -0.565549
O       9.74184      1.85139      0.46111        -0.061159      0.259546     -0.608805
O       9.74498      1.91316     12.90368        -0.027755      0.094753      0.225262
O       9.74459     13.64751      0.46848        -0.039141     -0.049547     -1.027612
O       9.73929     13.64472     12.94542         0.061906     -0.069784     -1.175640
O       9.74534      1.96447      4.58176        -0.018060     -0.027841      1.371159
O       9.72382     13.63295      4.56627         0.064514     -0.035671      0.862311
O       9.76545      1.91614      8.82260        -0.188710     -0.116269     -1.958816
O       9.72213     13.67709      8.76810        -0.078903     -0.113487     -0.106151
O       9.74452      5.83545      0.41448        -0.023667     -0.039077      0.493716
O       9.78526      5.83996     12.90188        -0.205581     -0.064530      0.057719
O       9.68425      5.82531      4.57051         0.299659     -0.015756      0.356874
O       9.73422      5.84088      8.75651        -0.027334      0.175177      0.194642
O       9.75888      9.73431      0.45929        -0.191109      0.112259     -0.429445
O       9.69866      9.70742     12.87959         0.240147      0.144777      0.512470
O       9.71867      9.71047      4.62519         0.073417      0.193810     -0.467753
O       9.73336      9.73430      8.78344        -0.242155     -0.224292     -0.156525
O       3.90325      1.96504      2.55082         0.047777     -0.265439     -0.079410
O       3.91459      1.91400     15.02416        -0.713872      0.171043     -0.004100
O       3.87128     13.62889      2.58011        -0.281391     -0.076226     -0.115786
O       3.93883     13.59686     14.96203        -0.414758     -0.086633      0.276589
O      15.56911      1.89047      2.55834         0.281047      0.358691     -0.120444
O      15.58665      1.93019     15.00030         0.419639     -0.038054      0.126153
O      15.58762     13.61668      2.57827        -0.040135      0.069779     -0.287978
O      15.56334     13.67990     15.00520         0.261172     -0.352500      0.169899
O       3.90858      1.90955      6.68132        -0.201391      0.110388      0.144632
O       3.89354     13.65079      6.69387        -0.051692     -0.140530      0.156168
O      15.59350      1.85890      6.70107        -0.337969      0.490772     -0.062153
O       0.04799     13.63536      6.76789        -1.126111     -0.063190     -0.270775
O       3.85545      1.94161     10.84341         0.545429     -0.048450      0.045709
O       3.86833     13.64315     10.81474         0.378574     -0.056425      0.227319
O      15.58104      1.95748     10.87523        -0.076361      0.035046     -0.035315
O       0.01753     13.61954     10.83395        -0.351007      0.260515      0.334325
O       3.84595      5.81877      2.58015         0.481873      0.034784     -0.248849
O       3.88241      5.89900     15.01376        -0.331975     -0.378515      0.109025
O      15.59131      5.87483      2.57684        -0.112473     -0.353604     -0.058607
O       0.01738      5.85728     14.99188        -0.654326     -0.346884      0.066056
O       3.88422      5.82988      6.71062         0.516719     -0.113496      0.091632
O      15.57721      5.80354      6.67512        -0.207016     -0.051862      0.289709
O       3.90462      5.86349     10.83621        -0.716712     -0.118716      0.009778
O      15.56063      5.84347     10.85507        -0.081967     -0.019923      0.153441
O       3.84461      9.73433      2.55946         0.919864     -0.106824     -0.012166
O       3.87207      9.71271     15.01602         0.129676      0.273906      0.067631
O      15.58810      9.72833      2.52693         0.000700      0.034691      0.223488
O      15.57856      9.74934     15.04347         0.287154     -0.195328     -0.182601
O       3.84405      9.73594      6.70472         0.733430     -0.140466     -0.039147
O      15.60114      9.72722      6.72879        -0.390164     -0.012373     -0.241384
O       3.88099      9.71744     10.83191         0.043884      0.123279      0.139754
O       0.00069      9.71207     10.82721        -0.324780      0.161589      0.331457
O       7.80767      1.92289      2.59039        -0.773485      0.044530     -0.289756
O       7.80701      1.91357     15.03569        -0.339871      0.030792     -0.010394
O       7.79375     13.66017      2.53316        -0.269739     -0.126350     -0.141623
O       7.81233     13.61308     14.98414        -0.378998      0.288729      0.313774
O       7.76654      1.93148      6.68850         0.563966      0.074831      0.301672
O       7.76761     13.67695      6.69955         0.794268     -0.477545      0.164718
O       7.75765      1.91277     10.87504         0.166325     -0.034548     -0.084810
O       7.78644     13.60585     10.86104         0.070043      0.234281     -0.058574
O       7.83601      5.84352      2.56429        -0.843856     -0.054519     -0.185477
O       7.77320      5.85787     15.04029         0.175531     -0.222906     -0.195373
O       7.82158      5.81004      6.70955        -0.839349      0.260788      0.070248
O       7.76429      5.84569     10.86783         0.541612     -0.171770      0.042815
O       7.76507      9.73233      2.54277         0.137147     -0.053350     -0.020532
O       7.77670      9.74022     15.02604         0.354217     -0.019032      0.022279
O       7.80591      9.69820      6.65648        -0.935907      0.237068      0.470668
O       7.77370      9.74140     10.90802        -0.175294     -0.149711     -0.298569
O      11.64932      1.95642      2.59912         0.933387     -0.033883     -0.177453
O      11.69863      1.96178     15.03247        -0.223159     -0.104349     -0.049880
O      11.67399     13.69081      2.53308         0.650435     -0.344665      0.124363
O      11.69390     13.64027     15.01995         0.066834     -0.138477      0.025217
O      11.68123      1.91835      6.70752        -0.151166     -0.050153      0.124050
O      11.67338     13.63721      6.71359        -0.102930      0.139701     -0.191309
O      11.72132      1.91582     10.81796        -0.465783     -0.076665      0.247785
O      11.70584     13.65319     10.84866        -0.635681     -0.203017      0.287044
O      11.67884      5.84379      2.55035         0.215784     -0.271410      0.048389
O      11.70805      5.81346     15.01160        -0.064301     -0.065128      0.027934
O      11.70073      5.86247      6.73136        -0.493470     -0.129605     -0.020935
O      11.64449      5.89577     10.87382         0.536514     -0.236392     -0.009282
O      11.67595      9.78250      2.55026        -0.058174     -0.043804      0.031602
O      11.66212      9.70892     15.04319        -0.025239      0.189491     -0.214793
O      11.66187      9.70962      6.70491         0.615561      0.122972      0.170722
O      11.71155      9.75104     10.85490        -0.289274     -0.014117      0.148751
O       1.98083      3.84729      2.57819        -0.514743      0.423697     -0.177316
O       1.96655      3.86317     14.97817        -0.154154      0.070296      0.072919
O       1.95125      0.00456      2.51361        -0.125180     -0.447713      0.099397
O       1.94211     15.54552     14.99725         0.039215      0.795304      0.268509
O      13.67816      3.87547      2.56421        -0.213205     -0.013175     -0.136077
O      13.68821      3.83717     15.02789        -0.096583      0.837306     -0.046799
O      13.68686     15.58621      2.58140        -0.358986     -0.094865     -0.150296
O      13.67353     15.58819     14.97585        -0.218313      0.010283      0.238249
O       1.91723      3.87179      6.68812         0.058687     -0.385068      0.220309
O       1.93265     15.57462      6.69205         0.184876      0.093078      0.069702
O      13.60755      3.91366      6.73757         0.075298     -0.955664     -0.049752
O      13.66773     15.58838      6.70150        -0.369551     -0.149129      0.042369
O       1.98131      3.90972     10.89083        -0.450695      0.256752     -0.146725
O       1.95983      0.02153     10.83993        -0.253353     -0.708002      0.103371
O      13.60121      3.86912     10.86196        -0.005665      0.711772      0.094504
O      13.64290     15.54611     10.87736         0.099681      0.795591     -0.052343
O       1.95617      7.77894      2.52990        -0.112188     -0.216636      0.064413
O       1.88910      7.76884     15.00410         0.124025      0.209123      0.014500
O      13.60767      7.83630      2.50609        -0.039545     -0.762441      0.252548
O      13.58632      7.77756     15.02440         0.365845     -0.395588     -0.096132
O       1.89692      7.70875      6.67081         0.128479      1.304360      0.370509
O      13.63867      7.76910      6.69718         0.086102      0.452743      0.229964
O       1.91282      7.80363     10.88647        -0.016107     -0.368877     -0.008241
O      13.62264      7.83182     10.83105         0.092893     -0.908776      0.269300
O       1.92832     11.66925      2.53307        -0.082675      0.568355      0.083669
O       1.92229     11.67782     15.02692        -0.026071      0.057487      0.103511
O      13.65702     11.62922      2.51861        -0.127090      1.410043      0.234451
O      13.67125     11.64304     15.01456        -0.307706      0.871829     -0.001462
O       1.95165     11.66087      6.75212        -0.055954      0.093086     -0.327789
O      13.63509     11.69101      6.75108        -0.018111      0.073158     -0.413112
O       1.94294     11.70040     10.84091        -0.033932     -0.390979      0.258043
O      13.67602     11.73214     10.81989        -0.119693     -0.855081      0.440733
O       5.83160      3.90337      2.52186         0.208596     -0.607387      0.007889
O       5.81116      3.90749     15.02738         0.191111     -0.540620      0.086208
O       5.80052     15.55624      2.56285         0.196306      0.621754     -0.189085
O       5.75648     15.60280     15.01532         0.696266     -0.401060      0.036877
O       5.85104      3.89360      6.69715        -0.008804     -0.056257     -0.002449
O       5.83751     15.53594      6.66647         0.061077      0.805309      0.357012
O       5.82834      3.86227     10.86769         0.058067      0.033318     -0.013077
O       5.80775     15.57240     10.85924         0.222036      0.127064     -0.150546
O       5.84945      7.74136      2.53895        -0.153018      0.573389     -0.026832
O       5.80137      7.80027     15.06677         0.326030      0.064876     -0.225981
O       5.80127      7.79943      6.73849         0.312746     -0.265202     -0.151391
O       5.79986      7.74337     10.84009         0.368578      0.707524      0.012699
O       5.81546     11.64958      2.57311         0.092499      0.216845     -0.207072
O       5.90379     11.66278     14.98683        -0.288980      0.374220      0.196298
O       5.81989     11.72027      6.65750         0.233474     -0.966544      0.341795
O       5.85269     11.68577     10.84702        -0.065953     -0.075750     -0.093692
O       9.71539      3.88328      2.50646         0.135243      0.061991      0.091136
O       9.74187      3.90368     15.06614        -0.154405     -0.407255     -0.226858
O       9.75744      0.00841      2.56518        -0.088186     -0.402980      0.077848
O       9.76906     15.57985     15.04038        -0.190272      0.119919     -0.095380
O       9.74590      3.91531      6.74955         0.046690     -0.698573     -0.076940
O       9.67730     15.59649      6.70405         0.392322     -0.208629     -0.015499
O       9.72931      3.82859     10.83529         0.084271      1.041399      0.241719
O       9.73018     15.59433     10.86684        -0.075550     -0.487633      0.118023
O       9.75543      7.79472      2.50729        -0.061842     -0.097325      0.236393
O       9.70112      7.77728     15.03621         0.257230      0.091474     -0.182215
O       9.73856      7.78767      6.67864        -0.133294     -0.395949      0.343702
O       9.67405      7.81143     10.91299         0.330256     -0.677813     -0.261626
O       9.73632     11.69590      2.57067        -0.046691     -0.077437     -0.005376
O       9.76548     11.68391     15.01671        -0.095467     -0.204385      0.009598
O       9.75394     11.63946      6.73790        -0.284240      1.247737     -0.140918
O       9.71528     11.65073     10.84181         0.122257      0.662857      0.269742
