  # total energy = -7877.49064887 
CRSYTAL
PRIMVEC
    15.6080000000000005    0.0000000000000000    0.0000000000000000
     0.0000000000000000   15.6080000000000005    0.0000000000000000
     0.0000000000000000    0.0000000000000000   16.6239999999999988
PRESSURE
-0.433962 -0.562614 -0.804138 -0.359283 0.372508 -0.054272
PRIMCOORD
320 1
Pb       4.01986      3.91652      4.11098        -0.306503      0.067297      0.521741
Pb       4.09241      4.05050      0.16049        -0.127696     -0.068809     -0.496825
Pb       3.89444      0.03649      3.96807        -0.308735     -0.435519      0.633701
Pb       3.76666     15.57360     16.59239         0.383300     -0.207054      0.011824
Pb       0.09264      3.82435      4.19684        -0.621403      0.503530     -0.821223
Pb      15.52792      3.79483     16.59605        -0.272172     -0.260042     -0.103662
Pb      15.56533     15.50881      4.01341        -0.242009     -0.185157     -0.681025
Pb      15.53159     15.56997     16.56103         0.152617     -0.004879      0.206994
Pb       3.63797      3.72710      8.33674         0.580028      0.440766     -0.549831
Pb       3.87266      0.06057      8.22632        -0.053862     -0.302463     -0.224270
Pb      15.49130      3.79189      8.29836         0.049663      0.044108     -0.122292
Pb       0.07818     15.57436      8.22222        -0.668052     -0.100352     -0.079033
Pb       3.84273      3.91432     12.45851        -0.549422     -0.101218     -0.054136
Pb       3.83356     15.43360     12.39403        -0.057669     -0.152638      0.375478
Pb       0.02877      3.88359     12.48509         0.150441      0.168635      0.325316
Pb       0.01225      0.28068     12.68742         0.005374     -0.134057     -0.284627
Pb       3.79075      7.89498      4.23193         0.290089     -0.209616     -0.419046
Pb       3.83446      7.74265     16.56424        -0.043143      0.672874      0.401423
Pb       0.16874      7.90271      4.26009        -0.831744     -0.178794     -0.332792
Pb       0.03157      7.74582     16.60097        -0.478096      0.005393     -0.542446
Pb       3.94855      7.66015      8.23408         0.139398      0.644522     -0.430186
Pb      15.30965      7.72351      8.64042         0.146143      0.289293     -0.557605
Pb       3.92794      7.85813     12.41218         0.007908      0.317049     -0.026643
Pb      15.54788      7.97267     12.61262        -0.271478     -0.662628     -0.730531
Pb       3.81414     11.69061      4.05015        -0.127754      0.040815     -0.407885
Pb       3.87414     11.67946     16.48609         0.075744     -0.236405      0.461768
Pb      15.55615     11.67392      4.03707        -0.027613     -0.076039     -0.305961
Pb      15.54754     11.83535     16.57039        -0.275841     -0.327253     -0.194707
Pb       3.83383     11.69279      8.07827         0.003666      0.216597      1.176838
Pb      15.59355     11.61005      8.28512        -0.187386      0.076055      0.005514
Pb       4.01089     11.64038     12.29382        -0.447845      0.215393      0.269781
Pb       0.21473     11.59172     12.35417        -0.247612     -0.113727      0.409878
Pb       7.82015      3.66599      4.20190        -0.139386      0.762951     -0.472509
Pb       7.81469      3.99944      0.05874         0.055677      0.185723     -0.446604
Pb       7.72307     15.43987      4.02651         0.015407      0.153979      0.437620
Pb       7.87348      0.18788      0.10749        -0.273296     -0.510097     -0.641688
Pb       7.57604      3.93470      8.38131         1.011970     -0.263904      0.190601
Pb       7.90173     15.55290      8.29088        -0.192308      0.255901      0.202393
Pb       7.69011      3.71854     12.43044         0.692345      0.123244     -0.098901
Pb       7.64310     15.54872     12.55110         0.281143     -0.128592     -0.462613
Pb       7.73085      7.84802      4.17136         0.235275     -0.112713      0.050504
Pb       7.70883      7.95591     16.57533         0.413050     -0.364982      0.270747
Pb       7.83831      7.73063      8.22622        -0.118160      0.208000     -0.257213
Pb       7.78459      7.59250     12.41586        -0.051594      0.674722     -0.041828
Pb       7.97705     11.73259      4.29676        -0.399776     -0.268292     -0.134965
Pb       7.60401     11.73007     16.58982         0.500836      0.623999      0.177197
Pb       7.65646     11.75701      8.13839         0.861152     -0.387171      0.687998
Pb       7.70696     11.48344     12.39220         0.140724      1.175294      0.044862
Pb      11.87208      3.84711      4.40987        -0.574958      0.102267     -0.689832
Pb      11.80824      4.08709      0.19911        -0.126551     -0.347998     -0.520852
Pb      11.55168     15.43781      4.18131         0.396480      0.091771     -0.200241
Pb      11.57736     15.49565      0.04352        -0.421606      0.135268     -0.135160
Pb      11.74247      4.16067      8.47280         0.146387     -0.950464     -0.357281
Pb      11.63359      0.16783      8.30317         0.787169     -0.060458     -0.169151
Pb      11.82280      3.81646     12.65187         0.003910      0.196633     -0.679609
Pb      11.74261     15.57737     12.44143        -0.012953      0.216356     -0.542593
Pb      11.77003      7.59103      4.12653        -0.341717      0.405312      0.023349
Pb      11.46423      7.79890      0.02660         0.391568      0.453500      0.077331
Pb      11.57172      7.90584      8.30811         0.446976      0.021736     -0.167995
Pb      11.43474      7.98673     12.69922         0.753442     -0.220376     -0.716026
Pb      11.74409     11.27756      4.26534         0.284812      0.381342     -0.190375
Pb      11.75898     11.76291     16.51598        -0.314107     -0.423029     -0.094271
Pb      11.99248     11.97303      8.52277        -0.208448      0.126905     -0.320189
Pb      11.56622     11.91222     12.38250         0.526848     -0.931098      0.639826
Ti       1.87758      1.91023      2.11903        -0.634622     -0.366724     -0.674813
Ti       1.98805      1.86026     14.87195        -0.319444      0.862488     -1.352671
Ti       1.90136     13.64128      2.13038        -0.767192     -0.813803     -0.194186
Ti       1.97259     13.52803     14.76134        -0.599996      0.634072     -1.567806
Ti      13.48174      1.89961      2.06862         1.453048      0.054936      0.819838
Ti      13.42918      1.88330     14.82555         0.853759      1.061676     -0.482029
Ti      13.49732     13.53383      2.13744         0.937822      0.505034      0.700119
Ti      13.57354     13.74196     14.60107         0.874521     -2.413318      0.317061
Ti       1.88487      2.06673      6.12148         0.630208     -1.281807      0.975063
Ti       1.93828     13.73084      6.26368        -0.255149     -0.429056     -1.000383
Ti      13.71274      1.85828      6.18896        -1.718486     -0.079171      1.969209
Ti      13.66368     13.67058      6.22597        -0.265188     -0.370411      1.073711
Ti       1.94482      1.90648     10.52376        -0.440781      0.151176      0.099705
Ti       1.89771     13.63476     10.50755         0.641763     -0.620953      0.557814
Ti      13.63690      1.87423     10.48038         0.336071     -0.548925     -0.075478
Ti      13.83800     13.58142     10.67370        -1.181613      0.937623     -1.190068
Ti       1.99028      5.72230      2.19150        -0.194079      1.046145      0.131792
Ti       1.95081      5.73999     14.85281        -0.753688     -0.200311     -0.956729
Ti      13.75468      5.85989      2.16679        -0.653210     -0.560728      0.804830
Ti      13.62301      5.87578     14.61308         0.135070      0.015108     -0.489045
Ti       1.95214      5.91818      6.27679         0.138674     -0.107240      0.711443
Ti      13.72870      5.75005      6.34299         0.307845      0.862582     -0.049674
Ti       2.17044      5.83777     10.31726        -2.268935     -0.097652      1.471969
Ti      13.77149      5.72212     10.57528        -0.279140      1.257427      2.021572
Ti       1.85569      9.61939      2.04337         0.519687      1.072574      0.634151
Ti       1.88778      9.69448     14.63344         1.066790      0.002985     -0.097745
Ti      13.65803      9.62850      2.03654        -0.926545      0.642967      0.589152
Ti      13.57168      9.77888     14.52488         0.466144      0.611473      0.300896
Ti       1.91076      9.81513      6.35405        -1.030318     -0.612565      0.323939
Ti      13.62728      9.68298      6.45423         0.331448     -0.105494     -0.208640
Ti       1.99422      9.60283     10.45532        -0.263972      0.704035      0.883527
Ti      13.52640      9.71823     10.55033         1.176940     -0.672827      0.184311
Ti       5.80272      1.87295      2.14883         0.080479      1.103100     -0.568871
Ti       5.83610      2.03289     14.68881        -0.128415     -0.601787      0.337322
Ti       5.75947     13.71813      2.07986         0.240916     -1.415586     -0.724138
Ti       5.84464     13.74552     14.68007         0.240774     -0.655810     -0.165272
Ti       5.84687      2.00111      6.41590        -0.422528     -1.010168     -0.669780
Ti       5.84222     13.75500      6.35775        -0.677686      0.208956     -0.586035
Ti       5.79396      1.83959     10.47099         0.591779     -0.031426      0.108506
Ti       5.87425     13.66132     10.37903         0.172302     -0.746433     -0.265537
Ti       5.91191      5.87407      2.38919        -0.052611      0.382913     -0.124178
Ti       5.82737      5.98593     14.56037         1.041149     -1.413916     -0.799764
Ti       5.88977      5.82864      6.37681        -0.400229     -0.294430     -0.621745
Ti       5.93223      5.78261     10.44058        -0.585875      0.504386      0.150951
Ti       5.73906      9.81032      2.13068         0.139114     -0.488101     -0.217044
Ti       5.77652      9.76761     14.68227        -0.513502      0.565541     -0.090301
Ti       5.78787      9.87781      6.31190         0.337755     -1.738116      0.822719
Ti       5.89424      9.70511     10.42037        -0.841029      0.231811     -1.381420
Ti       9.70115      1.87044      2.26783         0.653315      1.301483     -1.053303
Ti       9.63966      1.98738     14.55087         0.756333     -0.003838      0.426643
Ti       9.64375     13.58117      2.19764         0.771006     -1.283893     -1.532460
Ti       9.68371     13.70067     14.57478        -0.333475     -0.223974      0.595223
Ti       9.67849      1.88322      6.31068         2.151685     -0.019416      1.881374
Ti       9.75177     13.61323      6.40572         1.147450     -0.567091      0.453078
Ti       9.76837      1.97336     10.44622        -0.103986      0.040099     -0.223725
Ti       9.76076     13.67375     10.43937        -0.341905     -1.116086      0.044160
Ti       9.74681      5.81612      2.26285        -0.057867     -0.218753      1.507277
Ti       9.74629      5.85419     14.46917         0.065782     -0.188122      0.336167
Ti       9.80324      5.65608      6.35559        -0.498790      1.056938     -0.851049
Ti       9.80644      5.86839     10.38532         1.141347     -0.186361      1.339297
Ti       9.64621      9.72148      2.31183         1.046292     -0.247829     -1.354068
Ti       9.63974      9.81349     14.63365         0.817653     -1.095180      0.104451
Ti       9.69235      9.67849      6.41360         0.557029      0.257652      0.390802
Ti       9.71729      9.78214     10.39135         0.198968      0.177147      0.632240
O       1.95292      1.72396      0.26529        -0.026385      0.382947      1.228248
O       1.85014      2.12406     13.00650         0.294418     -0.566700     -0.155824
O       1.80093     13.65426      0.31819         0.115374     -0.149427     -0.279140
O       2.01012     13.64788     12.96321         0.379530     -0.136293     -0.133733
O      13.41851      1.88594      0.26524         0.124480     -0.410452      0.592195
O      13.63991      1.76094     13.01657        -0.117151      0.252029     -0.561924
O      13.78086     13.43875      0.36827        -0.666717      0.592983     -0.403562
O      13.50276     13.67698     12.83419         0.151466      0.239105     -0.477445
O       1.86168      1.89615      4.32173         0.263267      0.307403      0.860778
O       2.03288     13.55517      4.43404        -0.030383      0.247014      0.885002
O      13.66107      2.04403      4.44260         0.445302     -0.051876     -0.792564
O      13.53687     13.65027      4.47473        -0.045032     -0.076774     -0.466032
O       1.88557      1.89303      8.75141         0.216524      0.141907     -0.429870
O       1.72660     13.51482      8.77256         0.215020      0.666576     -0.769694
O      13.72234      1.91140      8.67471         0.176754      0.258145      0.793813
O      13.83970     13.61516      8.83909        -0.026708     -0.364919     -0.378484
O       2.13993      5.88884      0.38750        -0.168633     -0.367599      0.315561
O       1.74934      5.53501     13.10256         0.961293      0.518906     -0.145322
O      13.41446      5.93406      0.44121         0.383680      0.182030     -1.016467
O      13.78209      5.78217     12.77624        -0.309928     -0.347830      1.248640
O       1.93758      5.69256      4.50722        -0.394882      0.352739     -0.412438
O      13.85048      5.59329      4.55366        -0.571883      0.458320     -0.278241
O       2.15940      6.03925      8.58328        -0.106302     -0.473494     -0.800879
O      13.70713      5.65049      8.79944        -0.240095      0.001361     -1.336137
O       1.95614      9.59952      0.28231         0.053345      0.010212      0.456065
O       2.13743      9.75842     12.83434        -0.380151     -0.466739      0.086520
O      13.71872      9.71523      0.28270        -0.081738     -0.182054     -0.311934
O      13.65353      9.68674     12.70500         0.121614     -0.035254      0.868334
O       1.90044      9.73086      4.53956        -0.226916      0.337527     -0.276584
O      13.70980      9.69943      4.66322         0.119004     -0.024694     -0.951749
O       1.88084      9.60950      8.70523         0.475937      0.047690     -0.669222
O      13.57165      9.48835      8.67895         0.186883      0.690945      0.612321
O       5.98235      1.93734      0.31700        -0.547703      0.346746      0.839396
O       6.04855      1.94958     12.88823        -0.640805      0.037381     -0.550160
O       5.89600     13.68749      0.29310        -0.062470      0.059194      1.016372
O       5.85548     13.63645     12.88632        -0.251856      0.267658     -0.322057
O       5.80710      1.90109      4.60127         0.284360     -0.051248      0.473704
O       5.75892     13.71710      4.52299         0.053422     -0.041355      0.463750
O       5.78723      1.82239      8.68202         0.090188      0.302750      0.537197
O       5.82038     13.79766      8.52250         0.369993     -0.758974      1.264770
O       5.91490      5.75540      0.60071        -0.281326     -0.300426     -1.383059
O       5.91529      5.81098     12.74926        -0.095511      0.188117      0.464043
O       6.06984      5.64035      4.59520        -0.679956      0.031522     -0.552753
O       5.76720      5.78458      8.63811         0.274612      0.152189      0.423590
O       5.64891      9.60695      0.27919         1.098900      0.326717      1.355916
O       5.84300      9.75900     12.89999         0.195139      0.134927     -0.686731
O       5.85694      9.85107      4.56822        -0.067053     -0.215038     -1.323123
O       5.74423      9.71612      8.60452         0.327228      0.039279      0.928639
O       9.73550      1.93602      0.41823        -0.325782     -0.045384      1.159536
O       9.62613      1.75960     12.78689         0.240882      0.181416     -0.011479
O       9.73510     13.44156      0.38688        -0.375544      0.095467      0.385156
O       9.86717     13.69192     12.78578        -0.256266      0.079888      0.501236
O       9.75017      1.79989      4.56833        -0.312709     -0.719297     -1.895313
O       9.77917     13.78663      4.60446        -0.141934     -0.117246     -0.592800
O       9.91181      1.95484      8.59850        -0.201721      0.020298      1.397759
O       9.76152     13.43769      8.64402        -0.102287      0.372991     -0.056135
O       9.71024      5.83176      0.50015         0.168730     -0.052356     -0.962924
O       9.83225      6.18574     12.69416        -0.423926     -0.795262      0.166656
O       9.89514      6.02602      4.59264        -0.816341     -0.824042      0.197661
O       9.81365      5.73258      8.58360         0.242216     -0.202766     -0.033480
O       9.70340      9.71598      0.48841        -0.127073     -0.132684     -0.044725
O       9.58863      9.45626     12.83585         0.288237      0.659596      0.163572
O       9.63263      9.72288      4.62745         0.029744     -0.305801     -0.714902
O       9.72192      9.78715      8.62309         0.067058      0.168580     -0.450435
O       3.85309      1.76264      2.36339         0.728206      0.284713     -0.068008
O       3.90116      1.67493     14.94338         0.723014      1.071473     -0.169408
O       3.81585     13.80020      2.25445         1.210586     -0.448830      0.512275
O       3.92652     13.57790     15.05652        -0.731901      0.377746     -0.133236
O       0.01756      1.96787      2.27243        -0.259892     -0.027809      0.284692
O      15.49618      1.87195     15.04178         0.549121     -0.117279      0.163403
O      15.58787     13.49971      2.45655        -0.103610      0.202417      0.478820
O      15.54928     13.49797     14.83961         0.116089      0.848058      0.341102
O       3.87252      2.03882      6.66538        -0.342728     -0.112996     -0.318045
O       3.84330     13.61097      6.68785         0.261498      0.042947     -0.321529
O       0.01718      1.87310      6.52422         0.707343      0.065560     -0.074555
O      15.58791     13.82735      6.36664         0.700399     -0.582942      0.445310
O       3.89016      1.99797     10.84480         1.282868     -0.657833      0.039476
O       3.96060     13.68660     10.77546        -0.418970     -0.163893     -0.159042
O       0.07231      2.03768     10.87564        -0.093110     -0.524643     -0.079050
O       0.04088     13.61279     10.98308         1.159027     -0.137019      0.173492
O       3.93463      5.80909      2.66215        -0.163409     -0.213629     -0.183819
O       3.99063      5.96224     14.96942        -0.455583     -0.287113     -0.209600
O       0.01807      5.77198      2.39221         0.709975     -0.259297     -0.100991
O      15.49534      5.69957     15.19503         0.847086      0.225003     -0.232111
O       3.89196      5.58958      6.59010        -0.058359      0.539346     -0.241432
O       0.03516      5.79659      6.66696         0.205029      0.345980      0.073487
O       3.98111      5.84850     10.90548         1.091378     -0.163607     -0.317483
O       0.12400      5.81202     10.62356        -0.002826     -0.675305      0.083736
O       3.90457      9.56010      2.58211        -0.261909      0.769638     -0.429384
O       3.90451      9.58124     14.92815         0.355570      0.299539     -0.019171
O      15.58474      9.78924      2.28146         0.576165     -0.272751      0.762099
O       0.08070      9.69000     14.68398        -1.523201      0.211206      0.372130
O       3.86048      9.88304      6.55373        -0.366225     -0.255018      0.032984
O      15.56738      9.71124      6.73326         1.301649     -0.302588     -0.254395
O       3.94884      9.75539     10.75880         0.473950     -0.461911      0.158245
O       0.08195      9.61943     10.85332         0.351825     -0.008572     -0.229568
O       7.78032      1.76897      2.44858         0.101619      0.659415      0.385840
O       7.74722      2.07588     14.93742         0.187195     -0.200080      0.360727
O       7.73294     13.56446      2.38142        -0.212767     -0.000612      0.696447
O       7.78758     13.57462     14.88740         0.931769     -0.707206      0.043827
O       7.91136      1.85104      6.78177        -1.960070     -0.054095     -0.335183
O       7.81950     13.60186      6.58491        -1.316306      1.038803      0.051049
O       7.88284      1.75241     10.72789        -0.680931      0.215894     -0.234355
O       7.77294     13.55769     10.76832         0.595289      0.394248     -0.289690
O       7.76263      5.59020      2.49905         0.960945      0.437430      0.463716
O       7.87157      5.84956     14.70226        -0.540650      0.038954      0.798444
O       7.83349      5.82950      6.70776         0.057168     -0.328606      0.233737
O       7.88949      5.91934     10.59769        -0.898257     -0.089424      0.295923
O       7.79813      9.77230      2.54484        -1.195924      0.001335     -0.232207
O       7.80599      9.84280     15.06367        -0.193742     -0.344767     -0.189610
O       7.64690      9.61988      6.73630         1.049074      0.092953     -0.366424
O       7.83196      9.81843     10.84437        -0.084175     -0.582002     -0.911273
O      11.71712      1.85459      2.50411        -1.381005     -0.368874      0.075371
O      11.58283      1.99658     14.90099        -0.715005     -0.910577     -0.175072
O      11.65852     13.73987      2.22865        -0.194224      0.069608      0.556443
O      11.62964     13.61725     15.04748        -0.245150      0.654580     -0.205902
O      11.78400      1.84887      6.53344         0.120083      0.026331     -0.246458
O      11.73087     13.59364      6.67890         0.143863     -0.287295     -0.057634
O      11.75913      1.76056     10.82440        -0.431604      0.800077     -0.104569
O      11.82051     13.44410     10.72920        -0.671682      0.618658     -0.298281
O      11.70849      5.81935      2.56647         0.067386      0.148179      0.006943
O      11.67850      5.72831     14.81585         0.228161      0.714898      0.120537
O      11.70855      5.64419      6.49406         1.038016      0.342244      0.684123
O      11.68499      5.60825     10.73200         0.144305      0.109037     -0.358143
O      11.70722      9.56307      2.34883         0.113152      0.371597      1.002224
O      11.77049      9.64607     14.88160        -0.475363     -0.174388     -0.027634
O      11.69330      9.72900      6.53266        -0.994661      0.137450      0.411271
O      11.75146      9.76394     10.78014        -1.379161      0.012294     -0.075757
O       2.03806      3.85350      2.31292         0.048784     -0.579165      0.183679
O       2.03196      3.83288     15.14925         0.230940      0.165265      0.547762
O       1.86150     15.50700      2.41646        -0.258788      0.944975      0.247783
O       1.92586     15.53675     14.97209        -0.330634     -0.271306     -0.075885
O      13.61394      3.88232      2.15625        -0.093275     -0.508628      0.600904
O      13.47997      3.84310     15.05636         0.652911      0.455893     -0.144400
O      13.75062     15.56163      2.42234        -0.247396      0.195944     -0.193809
O      13.48016     15.53037     15.00422         0.300421      0.529937      0.407029
O       1.81071      3.88048      6.57207         0.259595     -0.619491      0.068155
O       2.04527      0.01009      6.64267        -0.257606      0.160404     -0.410599
O      13.74562      3.85025      6.64608         0.017507     -0.381751      0.017799
O      13.69934     15.57747      6.62356        -0.138123     -0.076952     -0.429058
O       2.23479      3.92517     10.57297        -0.673420     -0.167675      0.539060
O       2.00476     15.56542     10.79676        -0.141542      0.466492      0.147262
O      13.66475      3.74412     10.97461        -0.041255      0.569444     -0.526429
O      13.75765     15.54153     10.77884         0.065418      0.686275      0.520268
O       1.93252      7.69228      2.46083        -0.195352      0.871606      0.450268
O       1.91586      7.75861     15.04420        -0.119449     -0.810965     -0.409232
O      13.79209      7.79132      2.53044        -0.083855     -0.382403     -0.006323
O      13.82402      7.77855     14.80326        -0.433234     -0.288031      0.079987
O       2.07601      7.86490      6.38110         0.083719     -1.213937      0.261907
O      13.64720      7.71798      6.71436        -0.086116     -1.068717     -0.212534
O       2.17593      7.68406     10.87160        -0.451274      0.642324     -0.254592
O      13.76959      7.69074     10.81753        -0.155706     -0.217340     -0.480553
O       1.96569     11.61445      2.35753         0.512843     -0.196761      0.306044
O       1.94196     11.61113     15.01611         0.370459      0.328159     -0.026257
O      13.52594     11.66627      2.47687         0.179804     -0.744755      0.292076
O      13.54703     11.75871     14.83700         0.158173     -1.401904      0.271776
O       1.84761     11.74954      6.70906         0.084298     -0.164483     -0.440528
O      13.76304     11.61734      6.65687        -0.271927      1.474611      0.265473
O       2.04268     11.62839     10.82743        -0.335948      0.507934     -0.212058
O      13.77871     11.59390     10.70456         0.215286      0.127481      0.126467
O       5.78173      3.72061      2.66998         0.296424      0.100440     -1.023568
O       5.76552      3.97553     14.95706         0.015048     -0.485447      0.069169
O       5.89286     15.59929      2.46605        -0.285831     -0.452718      0.073667
O       5.94026     15.55287     14.93165         0.074341      1.321398     -0.092396
O       6.00662      3.81866      6.74040        -0.357920      0.026583     -0.257329
O       5.72869      0.03690      6.66409         0.517612     -0.562535     -0.295690
O       6.02866      3.85579     10.66045        -0.272371     -0.133944      0.084389
O       5.94330     15.52752     10.76604        -0.615069      1.040688      0.234067
O       5.87388      7.78155      2.44204         0.556284     -0.106642      0.669191
O       6.06274      7.83560     14.82181        -0.324259     -0.698556      0.333438
O       5.76466      7.65665      6.44364        -0.291394      0.928882      0.564448
O       5.96596      7.83731     10.68150        -0.418734     -0.906891      0.214536
O       5.70004     11.70532      2.24234        -0.185170     -0.246320      0.349425
O       5.80905     11.69453     15.04018        -0.027933     -0.636475     -0.154142
O       5.84164     11.69555      6.59164         0.002212      1.388581      0.097001
O       5.88682     11.70282     10.79142        -0.120959     -0.205031     -0.309842
O       9.74761      3.83262      2.63090        -0.046473     -0.720474     -0.233468
O       9.74445      3.88516     14.63387        -0.326779      0.592744      0.139749
O       9.60268     15.44607      2.36836         0.525100      1.469398      0.488090
O       9.50960     15.59660     15.01452         1.005732     -0.305851     -0.322892
O       9.84327      3.77251      6.35656        -0.550848      0.681929      0.321002
O       9.85614     15.52009      6.79959        -0.700485      0.185914     -0.433079
O       9.64719      3.83179     10.83845         0.405725     -0.117651     -0.346366
O       9.94204     15.45399     10.66116        -0.419107      1.158424     -0.210887
O       9.68647      7.75665      2.60073        -0.260214     -0.007269     -0.251678
O       9.91362      7.80962     14.93220        -0.883058     -0.592949      0.235085
O       9.77297      7.77017      6.67962        -0.250706      0.180206      0.428235
O       9.94663      7.85952     10.49444        -0.525526     -0.920718      0.278526
O       9.78953     11.66441      2.79651         0.016215      0.078411     -0.654799
O       9.93986     11.56785     14.73269        -0.512489      1.648697      0.233429
O       9.45997     11.67072      6.46714         0.566116     -0.214490      0.098916
O       9.84808     11.68102     10.83929        -0.586017     -0.584454     -0.044682
