  # total energy = -7876.64170765 
CRSYTAL
PRIMVEC
    15.6080000000000005    0.0000000000000000    0.0000000000000000
     0.0000000000000000   15.6080000000000005    0.0000000000000000
     0.0000000000000000    0.0000000000000000   16.6239999999999988
PRESSURE
0.043689 -0.372121 -0.544269 -0.03046 -0.264712 0.043647
PRIMCOORD
320 1
Pb       4.02384      4.00035      4.15096        -0.602163     -0.746063     -0.010169
Pb       4.09691      4.09747      0.15988        -0.443020     -0.080492     -0.395357
Pb       3.86526      0.03490      4.00703         0.533002     -0.073923     -0.202028
Pb       3.76357     15.57373     16.61514        -0.022678     -0.100628     -0.082590
Pb       0.10079      3.83345      4.18522        -0.064846      0.043367     -0.302469
Pb      15.47128      3.80276     16.60936         0.048176      0.624411      0.437201
Pb      15.55175     15.54984      4.00669         0.012653      0.000722      0.036109
Pb      15.47537     15.56246     16.55822         0.622145     -0.291394      0.670776
Pb       3.63213      3.76337      8.35359         0.612940      0.050703     -0.206724
Pb       3.89322      0.08605      8.29065        -0.370552     -0.612531      0.400409
Pb      15.54293      3.77908      8.29013        -0.014009     -0.000243     -0.454249
Pb       0.15139     15.58368      8.20783        -0.594234     -0.251206     -0.103086
Pb       3.91011      3.94060     12.38748        -0.007952      0.162987     -0.173172
Pb       3.83678     15.39638     12.28553        -0.066224      0.170833      0.556818
Pb      15.58969      3.77492     12.43624         0.232983      0.299947      0.055262
Pb      15.56184      0.32443     12.62357         0.103397     -0.651972     -0.486016
Pb       3.79832      7.86680      4.33472        -0.306867     -0.084421     -0.966103
Pb       3.80956      7.74274      0.00194         0.189821     -0.271460     -0.273203
Pb       0.25673      7.91383      4.26503        -0.624912     -0.247331     -0.606571
Pb       0.04030      7.73097      0.01285        -0.249865      0.189303     -0.033257
Pb       4.07776      7.66688      8.10895        -1.276433      0.096206      0.655322
Pb      15.38116      7.74338      8.60499         0.059091      0.230509     -0.890555
Pb       3.92541      7.90254     12.43088        -0.089377     -0.767872      0.050685
Pb      15.58892      7.99461     12.61431         0.061516     -0.411962      0.297010
Pb       3.81951     11.66966      4.07473         0.572429      0.040049      0.291410
Pb       3.92785     11.61200     16.44895        -0.565835      0.218372     -0.227610
Pb      15.58960     11.66837      4.05348        -0.478680     -0.248709      0.446336
Pb      15.53322     11.85251     16.56104         0.143535     -0.769314     -0.090797
Pb       3.83543     11.62405      8.03677         0.212762      0.899314      0.834656
Pb      15.57629     11.60469      8.33627        -0.269287      0.376784     -0.557212
Pb       4.06410     11.68281     12.27416        -0.571516      0.009147      0.828051
Pb       0.23417     11.51643     12.29075        -0.870689      0.808449      0.828252
Pb       7.86096      3.71569      4.20265         0.129793     -0.043820      0.075405
Pb       7.84666      4.00993      0.13010         0.206539     -0.299692     -1.050384
Pb       7.76996     15.41140      3.98615         0.121207      0.433039     -0.172583
Pb       7.91299      0.18949      0.13059         0.298012     -0.399792     -0.536565
Pb       7.55335      3.98273      8.36114         0.428754     -0.094414     -0.429483
Pb       7.88696     15.50580      8.34416        -0.490536      0.246904     -0.027869
Pb       7.63539      3.76336     12.40962         0.767694      0.318493      0.251586
Pb       7.63516     15.56518     12.57285         0.552906     -0.298920     -0.191502
Pb       7.68399      7.86465      4.15634         0.638282      0.020443      0.418631
Pb       7.83191      8.04299     16.58707        -0.486737     -0.936108     -0.359863
Pb       7.82092      7.75920      8.26002        -0.000685     -0.051751     -0.157631
Pb       7.83362      7.54396     12.34631         0.219005      0.524874      0.061772
Pb       8.02005     11.68926      4.34931        -0.668024      0.327777     -0.931769
Pb       7.62769     11.68603      0.01890         0.561441      0.037528     -0.006970
Pb       7.59947     11.74310      8.07621        -0.216342      0.179895      0.576885
Pb       7.66247     11.45367     12.39886         0.544284      0.672799      0.014950
Pb      11.80182      3.92357      4.40224         0.046846     -0.021772     -0.794735
Pb      11.84127      4.09823      0.14543        -0.459326     -0.305519     -0.170876
Pb      11.50637     15.46222      4.18599        -0.301787      0.304891     -0.633117
Pb      11.55269     15.50467      0.10989        -0.052704      0.235746     -0.953632
Pb      11.77244      4.12800      8.42465        -0.073673     -0.153572     -0.599159
Pb      11.61896      0.14021      8.24939         0.532002     -0.196906      0.422063
Pb      11.86063      3.81526     12.64946        -0.414932     -0.275390     -0.164973
Pb      11.89387     15.52713     12.41868        -0.979372      0.329673      0.432504
Pb      11.73149      7.42804      4.01661         0.339487      1.692482      0.891456
Pb      11.36576      7.77639      0.03232         0.943757      0.251681     -0.317537
Pb      11.51337      7.97200      8.23591         0.798840     -0.634224     -0.098296
Pb      11.48973      7.90084     12.70142         0.060679      0.318751     -0.435468
Pb      11.61741     11.25071      4.29457         0.585262      0.842666     -0.534397
Pb      11.82106     11.80924     16.50112        -0.590330     -0.637485      0.378043
Pb      12.07424     11.99549      8.44982        -0.417904     -1.098065     -0.192991
Pb      11.60946     11.90714     12.40644         0.234522     -0.400043     -0.151090
Ti       1.83026      1.81825      2.13729         0.658857      0.550095      1.473851
Ti       1.98538      1.99236     14.73438         0.445635     -1.034578     -0.780735
Ti       1.90780     13.50602      2.17456         0.153780      1.151340     -0.391636
Ti       1.91421     13.68688     14.46371         0.882195     -0.922276      0.309098
Ti      13.54752      1.91590      2.21405        -0.701883      0.352878     -0.497806
Ti      13.61281      1.95474     14.86905        -2.224911     -0.473842     -0.319627
Ti      13.53904     13.60539      2.29598        -0.189405     -0.697053     -0.440569
Ti      13.69057     13.63285     14.63046        -0.753797      0.062661     -0.350122
Ti       1.90542      1.92506      6.34643         0.388605      0.459751     -0.158094
Ti       1.93612     13.69777      6.10657        -0.261676     -0.474402      1.620071
Ti      13.62077      1.87710      6.27876         1.044721      0.157137     -0.207735
Ti      13.71750     13.64503      6.17180         0.236690      0.036484      0.788494
Ti       1.94636      1.91580     10.56465        -0.252738     -0.143947     -0.760816
Ti       1.93704     13.53469     10.39087         0.607911      0.826685      0.722302
Ti      13.58295      1.94962     10.47304         0.194363     -0.544475     -0.488123
Ti      13.77066     13.72620     10.49352         0.172370     -1.120322      0.651539
Ti       2.04037      5.71490      2.24800        -0.410431      1.169249     -0.041773
Ti       1.84406      5.71054     14.71145         0.530014      1.372264      1.409992
Ti      13.84240      5.83986      2.16206        -0.846978      0.474032     -0.001071
Ti      13.54353      5.94792     14.67089         0.367073      0.301492      0.226888
Ti       1.84492      5.87088      6.33970        -0.051120     -0.095821     -0.091672
Ti      13.65963      5.90102      6.29832        -0.281717     -0.505466      0.775231
Ti       1.94689      5.86338     10.46790         1.887025     -0.692906     -0.546330
Ti      13.80463      5.81594     10.59714        -1.518293      0.095325     -0.229306
Ti       1.92582      9.76363      2.16633        -0.286151     -1.699223      0.477045
Ti       1.97440      9.66272     14.61750        -0.820912      0.647670     -0.071761
Ti      13.66192      9.70503      2.23531        -0.109242     -0.439061     -0.697775
Ti      13.63354      9.73707     14.62240        -0.004197      0.102220      1.580633
Ti       1.78187      9.75184      6.46463         1.003874     -0.364027     -0.695217
Ti      13.64925      9.64876      6.24875        -0.691151      0.620258     -0.320779
Ti       2.00403      9.67153     10.40083         0.375553     -0.045032     -0.203951
Ti      13.49191      9.64662     10.69912        -0.146826      1.421414     -1.182898
Ti       5.82408      2.02404      2.12483        -0.033270     -1.717617     -0.087042
Ti       5.85425      2.00239     14.64047         0.730257      0.015757      0.203259
Ti       5.83182     13.51272      2.14827         0.612835      1.213965      1.505777
Ti       5.92283     13.76955     14.86218        -0.037892     -0.781910     -2.114532
Ti       5.87693      1.84727      6.38218        -0.977761      0.909301     -0.343653
Ti       5.70237     13.75645      6.30259         0.260451     -1.094152      0.475696
Ti       5.83338      1.88530     10.51369        -0.344346     -0.178587      1.134895
Ti       5.90309     13.57781     10.54086        -1.291695      0.211899     -2.376001
Ti       6.01128      5.85661      2.28974        -1.380010      0.896281      0.053835
Ti       5.85530      5.76726     14.64526         0.086243      1.641153     -0.427239
Ti       5.75863      5.78625      6.21317         0.122819     -0.569193      1.383547
Ti       5.91274      5.86754     10.51846        -1.095029     -0.661700      0.270713
Ti       5.79180      9.73780      2.28833        -0.168201      0.078536     -0.431576
Ti       5.84703      9.64083     14.62877        -0.416775     -0.014778      0.643244
Ti       5.78046      9.66948      6.25919         0.301086      1.708390     -0.595486
Ti       5.89376      9.61745     10.36714        -0.316035      0.582880      0.784453
Ti       9.76208      2.06112      2.16436        -0.163145     -1.727669      0.504636
Ti       9.71873      2.04315     14.64044         0.503582     -1.179281      0.252890
Ti       9.81099     13.52100      2.17790        -1.712985      0.427922     -0.403651
Ti       9.67222     13.62371     14.64259         0.275697      1.561155      0.007939
Ti       9.78375      1.91201      6.31658        -0.751094      0.370150     -0.552491
Ti       9.83882     13.59624      6.45788        -0.141856      0.115959     -1.247060
Ti       9.67182      1.92831     10.55522         0.716771     -0.113393      0.529338
Ti       9.70244     13.65388     10.37789        -0.124457      0.169744      2.252353
Ti       9.74602      5.81263      2.29396         0.573493     -0.082817      0.416480
Ti       9.64550      5.84001     14.53452        -0.109521     -0.553950      0.636991
Ti       9.65635      5.78605      6.36147         1.197320     -0.153525     -0.410229
Ti       9.94447      5.68759     10.47068        -2.183348      0.926675      0.427358
Ti       9.64862      9.63750      2.24279         1.084514      1.089181     -0.431730
Ti       9.73749      9.90547     14.64237         0.421869     -1.185669     -0.892707
Ti       9.73209      9.77130      6.34707         0.218715     -0.685632      0.706510
Ti       9.73858      9.74915     10.29241         0.164748     -0.108296      1.693900
O       1.87047      1.63314      0.42759         0.231522      0.591375     -1.544625
O       1.78103      1.95421     12.86144         0.185051      0.150658      1.223710
O       1.79180     13.58698      0.38601         0.448645     -0.021004      0.486280
O       2.04208     13.56575     12.67457        -0.447005      0.540929      1.018784
O      13.47316      2.00379      0.37904         0.343014     -0.139624      0.270063
O      13.60897      1.93263     13.03512         0.685354     -0.338197     -0.566924
O      13.41814     13.42978      0.48496         0.729710      0.251101     -0.620101
O      13.63319     13.74813     12.87097         0.212525      0.132336      0.007807
O       1.84936      2.03873      4.58420        -0.018675     -0.217519     -0.985646
O       1.99372     13.67503      4.34557        -0.132683     -0.204589      0.245194
O      13.65314      1.87111      4.46206         0.004933      0.146005      0.236229
O      13.58254     13.63584      4.40181         0.156718      0.164380      0.613839
O       1.87344      2.09048      8.67167        -0.040655     -0.412389      1.087818
O       1.92665     13.73735      8.64189        -0.224551     -0.633166     -0.049459
O      13.61989      1.92828      8.67819        -0.205615      0.179461      0.138098
O      13.77120     13.60994      8.69082        -0.009531     -0.055730     -0.097489
O       2.06004      5.97437      0.47957        -0.264130     -0.288795     -0.863648
O       1.99158      5.76442     13.01264        -0.248459     -0.228624     -1.539424
O      13.62443      6.00354      0.34045        -0.202308     -0.758329      0.076122
O      13.59045      5.67779     12.89861         0.095428      0.222524     -0.889956
O       1.75109      5.83701      4.49410         0.198784     -0.586806      0.223341
O      13.56589      5.75182      4.53710         0.330168     -0.198047     -0.971639
O       2.15993      5.64282      8.67804        -0.997498      0.751009      0.509861
O      13.69603      5.87371      8.75942        -0.118178     -0.183013      0.686511
O       1.87383      9.68208      0.40849         0.054297      0.101430     -0.880169
O       1.90785      9.49203     12.80262         0.065333      0.239180     -0.131901
O      13.69030      9.64449      0.40729        -0.151783      0.238767      0.588914
O      13.55017      9.73494     12.88430         0.108841     -0.192852     -2.237384
O       1.80870      9.75494      4.64554         0.299008     -0.221022      0.025324
O      13.75594      9.84671      4.46556        -0.262087     -0.465230      1.337041
O       1.96032      9.84288      8.59025        -0.396690     -0.395236      0.873427
O      13.55279      9.72263      8.81833         0.109341     -0.270503      0.683603
O       5.84634      2.10593      0.31857         0.138302     -0.257429      0.852709
O       5.87807      1.99611     12.81269        -0.156159     -0.237863      0.854071
O       5.98575     13.62374      0.38756        -0.571500     -0.437136     -1.420423
O       5.90561     13.61061     12.94620        -0.161375     -0.123949      0.816057
O       5.74643      1.85933      4.61140         0.035604      0.335683     -0.358006
O       5.72596     13.67728      4.52303         0.178780      0.109140      0.365597
O       5.71522      1.86987      8.78928         0.442765     -0.019857     -1.672823
O       5.77027     13.57169      8.69069         0.060581      0.264359      1.046497
O       5.97560      5.72992      0.48731        -0.186660      0.378185      0.319753
O       5.92862      5.78305     12.83453        -0.229516      0.094515     -0.064153
O       5.72887      5.76604      4.47891         0.334080     -0.295144     -0.443200
O       5.86432      6.00938      8.72581         0.142021     -0.497056     -0.635864
O       5.89812      9.65882      0.45784        -0.560550      0.070858      0.435573
O       5.95563      9.74732     12.84876        -0.254959     -0.469362     -0.228299
O       5.70495      9.87641      4.43212         0.346389     -0.749549      1.603023
O       5.86591      9.61081      8.61790        -0.313144     -0.185973     -0.574295
O       9.54350      2.06705      0.38145         0.651732     -0.115381     -0.138001
O       9.68772      1.96133     12.87092        -0.052635     -0.137816     -0.651637
O       9.66651     13.64940      0.38686         0.474184     -0.250378      0.184431
O       9.63876     13.65494     12.84864         0.082501     -0.270232     -0.208206
O       9.75675      1.74082      4.51362        -0.042211      0.671642      1.228733
O       9.68270     13.71177      4.59995         0.074608     -0.086693      1.308881
O       9.94465      1.90890      8.79642        -0.313114      0.154014     -0.816263
O       9.79212     13.70798      8.63812        -0.131280     -0.302641     -1.365637
O       9.74598      5.84336      0.52460        -0.472760     -0.138420     -0.706089
O       9.69468      5.73056     12.75229         0.145599      0.678467     -0.128820
O       9.82756      5.74321      4.55473        -0.001221      0.176391      0.423880
O       9.81929      5.67434      8.64689        -0.267516     -0.003497     -0.178548
O       9.72378      9.59535      0.40029        -0.249458      0.142943      0.473219
O       9.71926      9.87390     12.77997        -0.259201     -0.425322      1.421960
O       9.60744      9.73564      4.58466         0.032625      0.277867     -1.467199
O       9.89818      9.74153      8.53345        -0.330768      0.070225     -0.007818
O       3.88985      1.84061      2.44937         0.260939      0.500731     -0.213176
O       3.94247      2.01868     14.91655        -1.071698     -0.621602      0.153480
O       3.92166     13.52056      2.38813        -1.107968      0.278757     -0.224337
O       3.78521     13.80815     15.00560         0.758749     -0.311849      0.125175
O      15.49891      1.80401      2.40542         0.406062      0.232741      0.074607
O      15.48734      1.90117     15.13602         1.162713      0.165890     -0.423396
O      15.50990     13.61296      2.47578         0.356485      0.012494     -0.103190
O       0.03734     13.57709     14.94979        -0.868254      0.089285     -0.210586
O       3.79690      1.97029      6.73485         0.096943     -0.079923     -0.160993
O       3.79755     13.62637      6.64183        -0.136161     -0.035399     -0.445700
O       0.00363      1.82913      6.70267        -0.780221      0.621283     -0.131997
O       0.00670     13.63753      6.45716        -0.300562      0.108111      0.031529
O       3.85660      1.89237     10.75581        -0.371685      0.343361      0.367758
O       3.94414     13.48854     10.77337        -0.918071      0.337637      0.185198
O      15.53245      1.91384     10.82827         1.017823     -0.271963      0.379273
O       0.07793     13.41503     10.72960        -0.447747      0.314916     -0.095960
O       3.88988      5.84361      2.44919         1.133157     -0.746457      0.504940
O       3.94029      5.76371     15.01918        -1.077090     -0.031816      0.300974
O       0.05294      5.66194      2.25098        -0.366632      0.343931      0.572180
O      15.50860      5.93828     14.99025         0.224700     -1.135354      0.051809
O       3.81074      5.95993      6.36716         1.011447     -0.609968      0.477058
O      15.53064      6.05527      6.69401         0.268905     -0.332918      0.174325
O       3.89300      5.80158     10.85155        -0.239428     -0.274103      0.251765
O       0.04890      5.81663     10.67797        -0.196049      0.242947      0.452840
O       3.81724      9.82019      2.53330         0.267860     -0.282758     -0.195452
O       3.83436      9.64042     14.90527         0.220455     -0.307943      0.260131
O      15.60494      9.74656      2.66106         0.311264     -0.298010     -0.926678
O      15.52518      9.73794     14.76162         0.857243     -0.157799      0.409718
O       3.86088      9.75702      6.63704         0.400873     -0.634912     -0.453694
O      15.54399      9.53316      6.76163        -0.370743      0.252905      0.056887
O       3.90387      9.64699     10.80466        -0.042954      0.020341     -0.315303
O      15.56102      9.65934     10.85655         0.548597     -0.055430     -0.424398
O       7.84742      2.00123      2.53661        -1.661054     -0.278117     -0.078532
O       7.80947      2.00292     14.94809        -0.943022      0.294969      0.025552
O       7.81024     13.55558      2.59703        -0.387666     -0.251367     -0.197677
O       7.78023     13.52239     14.99314        -0.809710     -0.232140      0.106542
O       7.72036      1.88850      6.57721         0.485248      0.000121      0.535265
O       7.59552     13.78927      6.78573         1.285665     -0.572616     -0.776439
O       7.71594      1.75977     10.78887         0.297465      0.258504     -0.141557
O       7.71583     13.58313     10.66780         1.963495     -0.052295      0.111580
O       7.79643      5.88277      2.82774         0.255864     -0.420029     -1.029008
O       7.77400      5.85106     14.94421         0.553355     -0.154983      0.100523
O       7.78922      5.85652      6.61948        -0.746109     -0.191751      0.070014
O       7.75860      5.83016     10.78489         0.166390     -0.006571     -0.400702
O       7.73033      9.69618      2.49094         0.453249     -0.273524      0.296191
O       7.69767      9.79204     14.96883         0.840056     -0.092456      0.059650
O       7.74409      9.85125      6.50619        -0.610889     -0.626027      0.420571
O       7.80823      9.54698     10.48828         0.214159      0.476723      0.671253
O      11.57720      2.02356      2.44776         1.647256     -0.365758      0.157133
O      11.66154      1.73911     14.92488        -0.004193      0.522383      0.338287
O      11.58299     13.48010      2.59522         1.411459      0.414748     -0.093161
O      11.58452     13.60950     14.84800         1.069577     -0.090951      0.429539
O      11.75958      1.73911      6.47704        -0.935668      0.919579      0.276822
O      11.73000     13.66547      6.61221        -0.401268     -0.163540      0.027107
O      11.70905      2.07627     10.95045         0.112682     -0.714261     -0.421220
O      11.83225     13.68870     10.79588        -1.484024      0.170833     -0.324764
O      11.72255      5.87064      2.39672        -0.602921     -0.685604      0.012748
O      11.57240      6.01012     14.89109         0.399826     -0.540185      0.298124
O      11.70240      5.75902      6.64231        -0.459705     -0.300174      0.191914
O      11.71084      5.54099     10.66727         1.235966     -0.157822      0.358908
O      11.64371      9.57760      2.71749         0.106395      0.156557     -0.872122
O      11.68000      9.69615     14.90586        -1.377081      0.127841      0.021193
O      11.66326      9.85710      6.42378         0.171076     -0.416424      0.317042
O      11.61742      9.56132     10.91602         0.049981      0.511681     -0.504127
O       1.92810      3.81497      2.40266         0.065193     -0.649059      0.138948
O       1.88585      3.79592     15.24927        -0.290927      0.488121     -0.583088
O       1.89596     15.52667      2.52923         0.184925      0.144392     -0.082033
O       1.79006      0.02379     14.88337         0.316709      0.011171     -0.027911
O      13.58671      3.84922      2.38757         0.132212      0.209892      0.249154
O      13.51192      3.87028     15.00769         0.094870      0.538161      0.291933
O      13.45811     15.51820      2.26121         0.154645      0.394859      0.752053
O      13.63975     15.47112     15.16005        -0.085574      0.301196     -0.543754
O       1.82961      3.93726      6.63500        -0.120526     -0.172465     -0.105519
O       1.89405     15.59126      6.49261         0.196762     -0.196847      0.208684
O      13.74462      3.92084      6.50286        -0.191296     -1.113091      0.432749
O      13.68684     15.55189      6.59976         0.112861     -0.271266     -0.272197
O       1.91270      3.85220     10.93246         0.052437      0.317011     -0.327701
O       1.95557     15.59331     10.68864        -0.143545     -0.260074      0.293795
O      13.86234      3.76483     10.84292        -0.779893      1.810849     -0.122483
O      13.73747     15.59247     10.79248        -0.115826      0.414843      0.274385
O       2.03346      7.78694      2.61160        -0.635325      0.401736      0.027682
O       1.75620      7.71125     14.92694         0.936916      0.413450      0.346534
O      13.75000      7.72295      2.59434         0.051969     -0.202350     -0.180054
O      13.53101      7.82672     14.74100         0.447883     -0.836214      0.221431
O       1.98385      7.73326      6.54704        -0.151869      1.049077      0.382921
O      13.39276      7.77854      6.44093         0.506578      0.658491      0.645636
O       2.00930      7.75183     10.59167        -0.473739      0.041228      0.283485
O      13.57622      7.73158     10.86104         0.450613     -0.714111      0.172002
O       1.84943     11.63295      2.52098         0.157941      0.771224     -0.237783
O       2.01396     11.63950     14.68612        -0.207727      0.115318      0.714029
O      13.65052     11.58842      2.53760        -0.225897      0.409024     -0.305003
O      13.58785     11.69897     14.91333         0.183863      0.342399      0.299444
O       1.84940     11.70918      6.50865        -0.047179     -0.155675      0.455602
O      13.69151     11.59858      6.66521         0.214979      1.110186      0.097810
O       2.04853     11.58046     10.81344        -0.350282     -0.271621     -0.543077
O      13.51488     11.73623     10.88943         0.364261     -0.874711     -0.462509
O       5.91750      3.90898      2.45979        -0.424775     -0.439435      0.499773
O       5.88661      3.97386     14.92787        -0.056379     -2.170162      0.380866
O       5.85677     15.51039      2.35578        -0.026600      0.922598      0.351473
O       6.08957      0.01801     14.95619        -0.990135      0.142160      0.049943
O       5.69985      3.93036      6.63150         0.605918     -0.232922      0.174234
O       5.58840      0.00267      6.74487         0.707404      0.080134     -0.552073
O       5.88697      3.83950     10.74600        -0.168404      0.157249     -0.181230
O       5.70262     15.46212     10.95693         0.708341      0.918684     -0.700754
O       5.78164      7.75846      2.80535         0.032315      0.235519     -1.165752
O       5.74080      7.69694     15.04503         0.475163      1.230207     -0.345281
O       5.83177      7.73918      6.55165         0.262921      0.706323     -0.388466
O       5.74810      7.72925     10.91614         0.602968      0.723519     -0.438943
O       5.78134     11.64401      2.50821         0.293957     -0.041219     -0.379617
O       5.69974     11.58513     14.98583         0.258301      0.510257      0.258175
O       5.75290     11.66640      6.63894         0.180636      0.106571     -0.290065
O       5.84230     11.55945     10.74809         0.477526     -0.287883      0.036058
O       9.73475      3.88027      2.57554        -0.434451      1.092677      0.099572
O       9.78319      3.91666     14.86586         0.107351      0.734336      0.449345
O       9.77263     15.57169      2.40668        -0.087111     -0.101319      0.144840
O       9.62188     15.58204     15.01462        -0.194360     -0.262936      0.224150
O       9.61556      3.84354      6.52626         0.484264     -0.615341      0.180152
O       9.74203      0.03291      6.77688        -0.115804     -0.663838     -0.179043
O       9.50084      3.79307     10.75735         0.295926      0.584571     -0.175081
O       9.62833     15.52419     10.66444         0.562529     -0.072097      0.337559
O       9.70074      7.74920      2.54254        -0.347778     -0.082625      0.060654
O       9.56546      7.81743     14.88915         0.579945      0.126688     -0.098752
O       9.68694      7.82548      6.65757         0.116902     -0.517765      0.109460
O       9.76226      7.68783     10.60054         0.150233     -0.077455      0.326574
O       9.71111     11.61990      2.42128        -0.255334     -0.939484      0.628640
O       9.68482     11.68279     15.02346        -0.067700     -0.128343     -0.135581
O       9.65021     11.69755      6.54758        -0.185152      1.359349      0.101186
O       9.82793     11.67305     10.65025        -0.233818     -0.127266     -0.092648
