  # total energy = -7883.39183764 
CRSYTAL
PRIMVEC
    15.6080000000000005    0.0000000000000000    0.0000000000000000
     0.0000000000000000   15.6080000000000005    0.0000000000000000
     0.0000000000000000    0.0000000000000000   16.6239999999999988
PRESSURE
0.101284 0.072181 1.29837 0.01764 0.171559 -0.046698
PRIMCOORD
320 1
Pb       3.86035      3.80336      4.10095        -0.245280     -0.039114      0.291760
Pb       3.90160      3.87901     16.56257         0.113271      0.052365      0.092248
Pb       3.91080     15.52673      4.05722        -0.017305      0.005944      0.568265
Pb       3.94954     15.57541     16.52898         0.096059      0.301241      0.452487
Pb       0.02291      3.92537      4.09042         0.180219     -0.404223      0.455191
Pb       0.02641      3.84784     16.60597        -0.472555      0.114156      0.022387
Pb       0.00541     15.50484      4.11341        -0.075679      0.046153      0.585027
Pb      15.59813     15.60425     16.54009         0.050586     -0.179944      0.676150
Pb       3.94942      3.85319      8.19422        -0.620077      0.116443      0.344835
Pb       3.86674     15.44589      8.15602        -0.316045      0.926582      0.284397
Pb      15.54286      3.89914      8.26504         0.314904     -0.460323      0.244338
Pb      15.49826     15.51795      8.28758         0.562429      0.400684     -0.557766
Pb       3.82809      3.80941     12.45115         0.107707     -0.080160     -0.022308
Pb       3.92984      0.04852     12.54640         0.081095      0.104796     -0.234024
Pb       0.03066      4.04775     12.55710        -0.526310     -0.090162     -0.188637
Pb       0.07496     15.58202     12.51355        -0.740472      0.217820     -0.645065
Pb       3.92832      7.79644      3.96947        -0.056915      0.303334      0.859485
Pb       3.91562      7.80406     16.54745        -0.256686      0.059142      0.661532
Pb      15.44653      7.78447      4.08875         0.543899      0.202900      0.574770
Pb      15.59243      7.71821     16.54102        -0.420755      0.483466      0.356589
Pb       3.74605      7.76993      8.30276         0.767262     -0.138025     -0.160132
Pb      15.47796      7.70016      8.39206        -0.390193      0.545295      0.110030
Pb       3.91195      7.73770     12.34584        -0.453942      0.069954      0.541368
Pb      15.53672      7.76910     12.40779         0.050131      0.232376      0.346742
Pb       3.87381     11.69390      4.07126         0.200349     -0.316010      0.384594
Pb       3.83008     11.74927      0.03214        -0.229006     -0.242488      0.109015
Pb      15.55660     11.61972      4.06186         0.050222      0.141362      0.164416
Pb      15.57694     11.62702     16.53453        -0.181342      0.193932      0.221571
Pb       3.88687     11.76906      8.38682        -0.327623     -0.950351     -0.133827
Pb       0.06904     11.72341      8.25422        -0.187370     -0.230329      0.217094
Pb       3.81476     11.63742     12.40953         0.257115      0.160241      0.230669
Pb      15.57019     11.79357     12.51002        -0.009280     -0.357167     -0.556489
Pb       7.79923      3.85622      4.09328         0.351554     -0.347587      0.071999
Pb       7.82389      3.89109     16.56158        -0.157313      0.271696      0.957038
Pb       7.81139      0.00180      4.17752        -0.038833     -0.224060     -0.173038
Pb       7.77474      0.02370     16.53355         0.145498      0.314325      0.794570
Pb       7.85146      3.78381      8.28065         0.043041      1.058958      0.529329
Pb       7.75793      0.03006      8.13819         0.341106     -0.244711      0.610335
Pb       7.86211      3.81382     12.46474         0.044521     -0.144799      0.116503
Pb       7.74899     15.57579     12.32623        -0.176773     -0.062157      0.989611
Pb       7.91872      7.78505      4.15256        -0.707372      0.603011      0.288936
Pb       7.62694      7.63203      0.00455         0.289145      0.132440      0.325523
Pb       7.77502      7.72902      8.20263        -0.236433     -0.409233      0.262651
Pb       7.65284      7.87249     12.42175         0.557262     -0.139011      0.951855
Pb       7.80470     11.67621      4.10545         0.337088     -0.057062      0.386623
Pb       7.75556     11.79165     16.55840         0.444174     -0.368073      0.553289
Pb       7.93673     11.69873      8.35393        -0.447078     -0.024044     -0.049938
Pb       7.79093     11.78862     12.41662        -0.439047     -0.392868      0.246459
Pb      11.73032      3.78954      4.10684        -0.120324      0.165419     -0.005587
Pb      11.65422      3.89366      0.10320         0.168031     -0.067271      0.121247
Pb      11.69315     15.49816      4.08703         0.198320      0.388731      0.285346
Pb      11.70314     15.59752     16.50304        -0.372938     -0.441421      0.722097
Pb      11.70087      3.93736      8.33489        -0.227460      0.024792      0.175753
Pb      11.79846      0.05781      8.35663        -0.311330     -0.368916      0.152617
Pb      11.67738      3.89912     12.34443        -0.116721     -0.091417      0.743936
Pb      11.47438      0.09353     12.41622         1.350727     -0.371385      0.558977
Pb      11.71351      7.99173      4.25158         0.139880     -0.203538     -0.115056
Pb      11.75633      7.77691     16.58454        -0.351907      0.169211      0.071243
Pb      11.70806      7.67517      8.38144         0.128788      0.659762     -0.064195
Pb      11.67251      7.91534     12.44125         0.009614      0.072645      1.300589
Pb      11.85301     11.68418      4.10749        -0.357199     -0.008021     -0.058900
Pb      11.52695     11.61000     16.57414         0.446758      0.614925      0.213216
Pb      11.64478     11.77415      8.43666         0.587470     -0.176226     -0.242744
Pb      11.65702     11.64647     12.47496        -0.015769     -0.006752      0.405571
Ti       1.96460      1.80398      2.22874        -0.165523      0.421520      0.765799
Ti       1.93923      1.92000     14.69042         0.342145      0.372209      0.691756
Ti       1.92213     13.57227      2.18897        -0.178826      0.241875     -0.634044
Ti       1.91938     13.68124     14.70961        -0.068587     -0.720044      1.701726
Ti      13.74600      1.89160      2.22289        -0.720882      0.230555      0.935168
Ti      13.65659      1.90823     14.72030         0.516480      1.205948     -0.799822
Ti      13.63863     13.70910      2.12508         0.217107     -1.100187      1.075160
Ti      13.64310     13.68735     14.64372        -0.348083     -1.080886      0.512225
Ti       1.91772      2.00197      6.34400        -0.190379     -0.908510      0.308124
Ti       1.98329     13.56523      6.33406        -0.877856      0.780333      0.563832
Ti      13.62343      1.98680      6.41494         0.522690     -1.083945     -1.419964
Ti      13.56394     13.64121      6.40231         0.687878     -0.087122     -0.214034
Ti       1.83951      1.96518     10.46693         0.434264     -0.217611     -1.227882
Ti       1.94191     13.70117     10.50556        -0.386214     -1.076774      0.053392
Ti      13.65511      1.96739     10.56867         0.075736     -0.376885      1.181657
Ti      13.57953     13.67632     10.60376         0.039590      0.665111      0.712068
Ti       1.98020      5.80445      2.19704        -0.535527      0.447659     -0.487554
Ti       1.83111      5.85775     14.82446         0.142996      0.506771     -1.152485
Ti      13.67712      5.77225      2.24778        -0.582217      0.955531     -1.300779
Ti      13.53395      5.83318     14.77265         0.694249     -0.059616     -0.830738
Ti       1.77566      5.88689      6.42533         1.178131     -0.482905     -0.566755
Ti      13.53932      5.78747      6.41106         0.113882      1.596983     -0.154126
Ti       1.99974      5.84682     10.45689        -0.978379     -0.020874      0.762922
Ti      13.54111      5.89189     10.69974         0.774062      0.175895     -1.177831
Ti       1.93187      9.72788      2.14946         0.479741     -0.618157      1.144220
Ti       1.92624      9.76325     14.63824        -0.062564     -0.269532      0.188303
Ti      13.71244      9.71069      2.13385        -0.647645      0.235117     -1.059356
Ti      13.57247      9.84225     14.69198        -0.015747     -0.876018     -0.223181
Ti       1.93867      9.69416      6.49030        -0.257104      0.132643     -0.177853
Ti      13.63776      9.79125      6.44497         0.145244     -0.467695      0.568853
Ti       1.92091      9.76978     10.56531        -1.135279      0.422930     -0.759805
Ti      13.58991      9.85277     10.58201         0.674732     -0.654566      0.695356
Ti       5.84289      1.87573      2.25542         0.577811      0.106033     -0.134352
Ti       5.91058      1.98137     14.70809        -0.849367     -1.112091     -0.252089
Ti       5.88183     13.64959      2.21970         0.387838     -0.053089      0.442352
Ti       5.81999     13.58549     14.74871         0.193917      1.074814     -0.923726
Ti       5.85515      1.98481      6.39734        -0.664542     -1.561111     -1.440653
Ti       5.84725     13.54382      6.39152         0.484186      0.460885     -0.910147
Ti       5.79564      1.82345     10.48093         0.039157      1.548915      0.468485
Ti       5.76888     13.61826     10.47529        -0.275736     -0.495513      1.120881
Ti       5.87471      5.75647      2.38140         0.022543      0.524438     -1.784788
Ti       5.74144      5.78929     14.62384         0.173959      0.631383      1.384421
Ti       5.75889      5.76482      6.30784         0.026855      1.556394      0.829740
Ti       5.89272      5.69225     10.56963        -0.327020      0.420197     -0.721012
Ti       5.85490      9.78849      2.22244         0.592051     -0.770772      1.051115
Ti       5.78060      9.76319     14.75030         0.374324     -0.735635     -0.469931
Ti       5.90288      9.72395      6.50950        -0.868526     -0.746853     -1.931732
Ti       5.82855      9.70106     10.56381        -0.058760      0.346208      0.622768
Ti       9.73944      1.92280      2.25422         0.663231     -0.149681     -0.241701
Ti       9.83816      1.99913     14.76322        -0.691414      0.028277     -0.727888
Ti       9.77951     13.60880      2.29551        -0.127032      0.340636      0.004561
Ti       9.72985     13.69150     14.65435         0.225306     -0.567065      0.103566
Ti       9.77246      2.02115      6.38417         0.920125     -0.550970     -1.077713
Ti       9.75041     13.69903      6.44931         0.473127     -0.400756     -0.463151
Ti       9.70926      1.92610     10.55866        -0.136532      0.307810      0.285894
Ti       9.70477     13.61025     10.57816         1.037193      0.876302     -0.741539
Ti       9.75999      5.86472      2.29732         0.661073     -0.126126     -0.728860
Ti       9.73877      5.83705     14.71750        -0.093946      0.824648     -0.186344
Ti       9.71123      5.87747      6.32398         0.057676     -0.072068     -0.264514
Ti       9.66205      5.90043     10.64656        -0.065775     -0.737003      0.007948
Ti       9.72849      9.71779      2.19990         0.533554      0.374640      1.237344
Ti       9.63163      9.71334     14.72542         0.823451     -0.498287      0.271322
Ti       9.80718      9.78993      6.49420         0.167259     -0.714179     -0.565486
Ti       9.70148      9.68299     10.51678         0.743262      0.468967      0.608427
O       1.93515      1.91864      0.47756         0.057339     -0.019390     -0.266592
O       1.92479      1.85194     12.93824         0.060284     -0.155052     -0.553582
O       2.03099     13.55673      0.39194        -0.149927      0.304792      0.839875
O       1.83628     13.75637     12.98629         0.275302     -0.167137     -1.183936
O      13.75824      1.96772      0.48552         0.041274     -0.057247     -1.049003
O      13.70284      1.84683     12.94940        -0.122785      0.182350      0.493711
O      13.60929     13.59516      0.41645        -0.084956      0.387362     -1.078054
O      13.75700     13.65546     12.90008         0.120824      0.113201     -0.413894
O       2.00520      1.93504      4.54136        -0.143373     -0.205240      0.542671
O       2.04230     13.65437      4.59731        -0.401944     -0.259875     -0.954212
O      13.68831      1.90721      4.61694        -0.498184      0.330063      0.455386
O      13.58883     13.62664      4.61578         0.164175      0.002689      0.206792
O       1.83149      1.99518      8.62523         0.149682      0.163543      2.041580
O       2.03634     13.34362      8.72477        -0.084355      1.039934      0.447990
O      13.60505      2.00474      8.80589         0.132978     -0.037474     -0.520368
O      13.40453     13.68351      8.85883         0.566187      0.105739     -1.068254
O       1.79568      5.73664      0.37518         0.358229     -0.035798      1.087473
O       1.74858      6.05208     13.03860         0.507167     -0.827472     -0.505962
O      13.86212      5.93652      0.41749        -0.853389     -0.521445      1.014244
O      13.57589      5.79213     12.97109        -0.212935      0.129202     -0.331646
O       1.98392      5.89152      4.66622        -0.520017      0.003908     -0.508905
O      13.56314      5.84982      4.65196         0.030104      0.005202     -0.516073
O       1.85535      5.83959      8.69166         0.185616     -0.517865      0.964460
O      13.48726      6.08024      8.83100         0.432531     -0.931709      0.568159
O       2.00872      9.78893      0.45324        -0.258200      0.046138     -1.283403
O       2.08789      9.77222     12.85102        -0.396549     -0.299367      0.609907
O      13.85222      9.66951      0.31187        -0.681243      0.396102      1.178176
O      13.51867      9.77467     12.90494         0.312239      0.439898      0.083946
O       1.91686      9.57661      4.74084         0.210496      0.226413     -0.837395
O      13.62160      9.74776      4.65563         0.234256      0.347726     -0.448238
O       1.81823      9.83288      8.74671         0.360783      0.099980      0.805380
O      13.47083      9.71965      8.85695         0.419919     -0.061988     -1.236265
O       5.89004      1.86672      0.48897        -0.212338      0.482669     -0.603022
O       5.79283      1.75699     12.94029         0.190173      0.471216     -0.020052
O       5.81497     13.53564      0.45194         0.277273      0.304118     -0.347831
O       5.92845     13.65980     12.95505        -0.088488     -0.174420      0.321933
O       5.86072      1.88255      4.56686         0.166348      0.035304      1.355098
O       6.09150     13.65882      4.60627        -0.819867     -0.268045      0.758710
O       5.86505      1.95222      8.70708        -0.038756     -0.136646      0.007728
O       5.61626     13.53429      8.74102         0.422102      0.263023     -0.574913
O       5.97168      5.59058      0.54189        -0.345012      0.548364      0.689233
O       5.58346      5.86772     12.90395         0.612040     -0.074604     -0.424650
O       5.74409      5.81463      4.52885         0.101758     -0.404062      0.495393
O       5.81159      5.77628      8.77771         0.189085     -0.342433      0.837690
O       5.83274      9.72154      0.50073         0.246415      0.172208     -1.263605
O       5.84236      9.75842     12.96229        -0.305079     -0.312719     -0.082385
O       5.91068      9.62540      4.67467        -0.099817      0.558954      1.008823
O       5.95010      9.60258      8.86288        -0.201514      0.306620     -1.505974
O       9.69042      1.90432      0.47404         0.607286     -0.162566     -0.772231
O       9.76661      2.03033     12.96939        -0.013738     -0.043919      0.421485
O       9.87657     13.67134      0.56380        -0.289374      0.010145     -1.522604
O       9.57183     13.55624     12.89776        -0.025212      0.216343     -0.601602
O       9.87257      2.01351      4.56514        -0.210248      0.226278      0.774598
O       9.83659     13.54843      4.68208        -0.220869      0.153606     -0.169320
O       9.63201      1.84739      8.82287         0.132638      0.198853     -1.366012
O       9.86168     13.75731      8.79622        -0.484406     -0.265907      0.168989
O       9.64640      6.13957      0.51627         0.007073     -0.694295      0.335568
O       9.76095      5.67757     12.96116         0.118419      0.211784     -0.341381
O       9.89305      5.77004      4.53678        -0.517619     -0.110179      0.751837
O       9.46248      5.84812      8.90351         0.597867      0.210389     -0.278062
O       9.69527      9.69149      0.47576         0.388317     -0.005230     -1.250997
O       9.86621      9.78376     13.00618        -0.597160      0.343798     -1.276674
O       9.77364      9.83500      4.71977         0.074139     -0.080665     -0.364351
O       9.72631      9.48611      8.77579        -0.238464      0.768605     -0.121377
O       3.93967      1.79601      2.52159        -0.923053      0.507807     -0.007745
O       3.92757      1.87312     14.99277        -0.492639      0.407008      0.243659
O       3.97812     13.53617      2.54846        -0.397562      0.335388      0.074243
O       3.91341     13.63156     15.02862        -0.015467     -0.015262     -0.325771
O       0.05062      1.72108      2.64499         0.096268      0.972986     -0.526583
O       0.03319      1.91411     15.05768        -0.246636     -0.371803     -0.147517
O       0.02479     13.66120      2.49049         0.036221     -0.290996      0.110398
O      15.59402     13.56872     15.05908         0.250771      0.733199     -0.280815
O       3.86407      1.97145      6.61468         0.564702     -0.003787      0.243067
O       3.90043     13.69516      6.54662         0.229478     -0.380842      0.442128
O      15.51370      1.95653      6.62791         0.442750     -0.032014      0.485063
O      15.57937     13.70113      6.72250        -0.073611     -0.358354      0.049820
O       3.82782      1.94260     10.93258         0.533551     -0.177054     -0.441884
O       3.86310     13.64033     10.90406         0.233671      0.025242      0.003324
O      15.59434      1.94902     10.85811         0.388041     -0.100320     -0.071065
O       0.00019     13.61306     10.83417        -0.001989      0.006468     -0.106406
O       3.88678      5.75989      2.50702        -0.523365     -0.254059     -0.146112
O       3.83978      5.92835     15.12306         0.519394     -1.128353     -0.336835
O      15.58523      5.93890      2.62289         0.763548     -0.463776     -0.036860
O      15.46689      5.91708     15.00295         1.253412     -0.160496     -0.011755
O       3.82499      5.75969      6.69751         0.490877     -0.055974      0.124398
O      15.49587      5.72413      6.73315        -0.246755      0.631271     -0.055747
O       3.87415      5.78233     10.92890        -0.620542      0.288530     -0.696505
O      15.44507      5.89610     10.84181         1.643646     -0.119278      0.158885
O       4.00114      9.83391      2.52408        -1.246906     -0.224487      0.272374
O       3.87247      9.74183     15.10067         0.472396     -0.000593     -0.360972
O       0.02991      9.71524      2.52569         0.040369      0.011041      0.208961
O       0.04093      9.76947     14.90486         0.067338     -0.019223     -0.122397
O       3.84332      9.57604      6.84846         0.382816      0.488085     -0.119766
O      15.56717      9.82977      6.73594        -0.581916     -0.021588      0.184042
O       3.84798      9.82278     10.76479         0.768499     -0.696724      0.090412
O      15.54016      9.83385     10.83749         0.207811     -0.156363      0.379272
O       7.88606      1.86323      2.55789        -0.858762      0.180094      0.374811
O       7.77685      2.00440     15.12041         0.565792     -0.183515     -0.808719
O       7.83343     13.73000      2.61881         0.161195     -0.307720     -0.438097
O       7.81638     13.75682     15.19423        -0.248935     -0.928877     -0.765648
O       7.86556      2.10451      6.65634        -0.829211     -0.850946     -0.170466
O       7.78534     13.50538      6.83070        -0.062601      0.213693      0.026155
O       7.77960      1.84962     10.95969        -0.666320      0.439976     -0.550917
O       7.72500     13.66231     10.71747         0.274672     -0.252861      0.126424
O       7.77386      5.81581      2.68973         0.511273      0.064413     -0.064785
O       7.81094      5.70048     15.01161        -0.546029      0.851677     -0.363123
O       7.78281      5.73489      6.69367        -0.174509     -0.026379     -0.608770
O       7.75984      5.75623     11.07578        -0.183008      0.469397     -0.248849
O       7.87325      9.68313      2.50455        -0.328557      0.014896      0.452140
O       7.76145      9.57552     14.98264        -0.115457      0.433407      0.145760
O       7.77579      9.73019      6.77443        -0.028034      0.281391      0.216839
O       7.83227      9.77129     10.96505        -0.265387      0.172577     -0.268559
O      11.80278      2.08914      2.49315        -0.276356     -0.585723     -0.014413
O      11.75068      2.02945     15.06602        -0.453528     -0.540747      0.110116
O      11.76127     13.61701      2.53769        -0.019466      0.173384      0.355005
O      11.66742     13.65803     14.83013        -0.112815      0.053092      0.529650
O      11.70387      1.97741      6.76300        -0.740676     -0.175657      0.102292
O      11.68113     13.74035      6.74712        -0.714566     -0.263108     -0.019623
O      11.66241      1.88637     10.84789         0.435092      0.491788     -0.034353
O      11.67526     13.81526     10.97429        -0.667871     -0.603863      0.019203
O      11.69867      5.75959      2.37386         0.663218     -0.055219      0.190938
O      11.68161      5.79233     15.19598         0.087645     -0.234334      0.050640
O      11.59802      5.90163      6.82280         0.586894     -0.423515     -0.116268
O      11.57557      5.77279     10.76644         0.409337      0.038265      0.456888
O      11.79988      9.74086      2.52518        -0.395045      0.318275     -0.163241
O      11.68367      9.91672     15.00875        -0.111507     -0.332671      0.405336
O      11.66180      9.75384      6.76081         0.593036     -0.160495     -0.051270
O      11.71524      9.78095     10.94497        -1.616732     -0.304595     -0.240110
O       1.86950      3.81755      2.56522         0.282430      0.553519     -0.279465
O       1.91485      3.87502     14.93179         0.147866     -0.002010      0.210202
O       1.90733     15.45784      2.60092         0.884697      0.812157     -0.394924
O       1.96145      0.00029     15.10742        -0.098034     -0.520120     -0.409470
O      13.79354      3.89853      2.54663         0.146765      0.042581     -0.116982
O      13.74830      3.87254     14.98117        -0.295474     -0.169582      0.382967
O      13.69756      0.00275      2.43614        -0.412860     -0.489998      0.353690
O      13.62133     15.56826     15.09596         0.379442      0.444584     -0.224870
O       1.80004      3.87953      6.68741         0.356292      0.049874     -0.072902
O       1.93724     15.58789      6.84481        -0.279308     -0.080918     -0.657988
O      13.55347      3.93673      6.70837        -0.218455     -0.503194      0.372100
O      13.55082     15.59451      6.72164         0.442271      0.367017      0.392954
O       1.96216      3.88109     10.93560        -0.483574      0.641736     -0.396844
O       1.92402     15.55105     10.72604        -0.101949      0.796156      0.095219
O      13.75320      3.92044     11.01129        -0.936989     -0.503401     -0.619394
O      13.65604      0.00115     10.89639         0.287799      0.649921     -0.237954
O       2.02676      7.78407      2.36316         0.020784     -0.454312      0.354890
O       1.98621      7.76031     15.08316        -0.248639      1.020125      0.058614
O      13.63603      7.82494      2.51278         0.173756     -0.357841      0.305001
O      13.48151      7.88108     14.92902         0.429219     -0.883267      0.203744
O       1.77244      7.74597      6.89970         0.251181      0.002386     -0.380458
O      13.65237      7.84260      6.71092        -0.132961     -0.430540      0.134891
O       1.84158      7.80969     10.73696         0.569290     -0.694250      0.172498
O      13.54558      7.79215     11.06748         0.203202     -0.027256     -0.805264
O       1.98326     11.65609      2.49814        -0.143835      0.107328      0.546008
O       1.97408     11.69494     15.10951         0.058572     -0.049434     -0.930425
O      13.77572     11.71918      2.47017        -0.234159     -0.709290      0.296804
O      13.65270     11.74742     14.99543         0.122004      0.035011      0.018511
O       1.93528     11.67974      6.61046         0.223615      0.118197      0.165603
O      13.53695     11.74055      6.79018         0.157153     -0.069571     -0.146289
O       1.92560     11.69261     11.01410         0.034620      0.406429     -0.363477
O      13.47176     11.73698     10.88479         0.585179      0.350596      0.001633
O       5.85496      3.76403      2.66824         0.037731      0.800887     -0.137830
O       5.78438      3.89464     14.94454        -0.182556     -0.188378      0.022256
O       5.86511     15.60135      2.53048         0.114526     -1.127940      0.150731
O       5.82693     15.58706     15.03180         0.201378     -0.259101      0.215206
O       5.82006      3.80122      6.71957        -0.006705      1.170395     -0.332268
O       5.82905     15.53273      6.74342         0.462298      0.539098     -0.235956
O       5.89082      3.83811     10.90678        -0.419372     -0.394653     -0.001306
O       5.80660      0.00976     10.78650        -0.143117     -1.192677     -0.002187
O       5.86869      7.74260      2.53560        -0.008681     -0.085768     -0.173020
O       5.80777      7.74537     15.10794         0.030552     -0.249650     -0.551371
O       5.77972      7.68869      6.70779         0.340351     -0.168955      0.102846
O       5.92771      7.73776     10.91214        -0.670297      0.370172     -0.178210
O       5.98133     11.69720      2.58564        -0.080961      0.034489     -0.073217
O       5.90959     11.65247     15.03330         0.078265      0.448533     -0.063093
O       5.70827     11.65472      6.76069         0.397540     -0.203177     -0.175722
O       5.77696     11.65767     10.88715         0.384033      0.580912     -0.259678
O       9.72320      3.88994      2.36812        -0.092535      0.437291      0.599055
O       9.83571      3.92068     15.08170        -0.198358     -0.634409      0.470408
O       9.86189     15.59484      2.58813         0.012291      0.056484      0.289626
O       9.75261      0.01312     14.88183         0.134734      0.321827      0.530148
O       9.86199      3.90265      6.80020        -0.424273     -0.008887     -0.153037
O       9.58278     15.58493      6.55319         0.179529      0.640725      0.371387
O       9.68827      3.83322     10.87032        -0.108474      0.355683     -0.010412
O       9.73365      0.01409     10.94678        -0.559441     -0.565576     -0.116111
O       9.86123      7.81740      2.81784        -0.439980     -0.012452     -0.948329
O       9.97208      7.78501     14.87639        -0.686086     -0.198818      0.403975
O       9.74497      7.78077      6.61798        -0.512159     -0.723246      0.025945
O       9.75037      7.85881     10.99093        -0.470966     -1.075616     -0.266202
O       9.80752     11.71183      2.53582        -0.243638     -0.848986      0.010362
O       9.66828     11.70450     15.01619        -0.308092      0.413388      0.390494
O       9.78361     11.64625      6.89522        -0.361388      1.014441      0.131426
O       9.88121     11.71976     10.72580        -0.812455     -0.261112      0.110523
