  # total energy = -7881.42004900 
CRSYTAL
PRIMVEC
    15.6080000000000005    0.0000000000000000    0.0000000000000000
     0.0000000000000000   15.6080000000000005    0.0000000000000000
     0.0000000000000000    0.0000000000000000   16.6239999999999988
PRESSURE
-0.503512 -0.224912 0.625644 -0.296067 0.201294 -0.021397
PRIMCOORD
320 1
Pb       3.85936      3.78858      4.07594         0.387163      0.841203      0.568825
Pb       3.79339      3.78905      0.05025         0.441733      0.408521     -0.094736
Pb       3.90674     15.52891      4.20467         0.164723     -0.057435      0.279757
Pb       3.88770     15.52987      0.05507         0.127650      0.288900     -0.172283
Pb      15.47667      3.82823      4.13711         0.078898      0.233051     -0.556454
Pb      15.55291      3.89677     16.54932         0.188416     -0.225222      0.720882
Pb       0.10069      0.00894      4.17061        -0.289396     -0.428113     -0.033399
Pb       0.06712     15.55869     16.62042        -0.377779      0.339840      0.422212
Pb       3.96195      3.97574      8.35104         0.166882     -0.272690     -0.674995
Pb       3.93089      0.15777      8.45882        -0.161249     -0.557080     -0.365487
Pb       0.02430      3.91125      8.23073        -0.516220      0.489195     -0.139909
Pb       0.09521      0.04945      8.28510        -0.251307     -0.111467     -0.109154
Pb       3.83158      3.99917     12.45340        -0.369276      0.050216     -0.310205
Pb       3.83348     15.51770     12.35311         0.378552      0.708372      0.403063
Pb      15.54498      3.76747     12.25387        -0.217233      0.039613      1.254953
Pb      15.52397     15.59209     12.40048         0.510394      0.517416      0.054603
Pb       3.80524      7.76821      4.17231         0.617107      0.125089     -0.467961
Pb       3.77189      7.78478     16.57540         0.725777     -0.349428      0.417795
Pb      15.58057      7.83374      4.03553        -0.006530      0.010914      0.175303
Pb       0.00464      7.79996     16.62151         0.003461     -0.067833     -0.032371
Pb       4.02649      7.82067      8.25011        -0.372696      0.260078      0.635057
Pb       0.01166      7.83706      8.24638        -0.317429     -0.291782      0.241906
Pb       3.79016      7.85796     12.54187         0.013107     -0.129117     -0.251724
Pb      15.56518      7.75896     12.42263        -0.380789     -0.412324      0.131943
Pb       3.95514     11.69595      4.19354         0.043459     -0.546817      0.288493
Pb       3.88330     11.67167     16.51207         0.000149     -0.322325      0.600046
Pb       0.03659     11.81415      4.15954        -0.114391     -0.472077      0.002878
Pb       0.06299     11.77519      0.07611        -0.241050     -0.117222      0.143661
Pb       3.88322     11.63139      8.26260         0.108100      0.174856      0.364116
Pb      15.45047     11.71975      8.28509         0.118608     -0.328658      0.159369
Pb       3.76956     11.82863     12.52497         0.705119     -0.650337      0.136741
Pb      15.51100     11.55236     12.37489        -0.471507      0.577926      0.051485
Pb       7.73000      3.91434      4.08800         0.583498      0.044825      0.578213
Pb       7.61650      3.68398     16.62341         0.163416      0.488140      0.388406
Pb       7.71102     15.59921      4.06705         0.476191     -0.033775      0.890626
Pb       7.76736     15.44027      0.02683         0.449984      0.641082     -0.703667
Pb       7.76593      3.94214      8.29402         0.542547     -0.228307     -0.053366
Pb       7.80752     15.53137      8.44614         0.492472      0.290172     -0.168122
Pb       7.76571      4.03541     12.48320         0.394473     -0.068581     -0.078576
Pb       7.88581      0.11454     12.50828        -0.289682     -0.318194     -0.300378
Pb       7.61785      7.79414      3.97073         0.491957     -0.284794      0.414822
Pb       7.88980      7.83008     16.53885        -1.020825     -0.881659      0.058591
Pb       7.84042      7.81807      8.42971         0.197186      0.149974     -0.658365
Pb       7.83988      7.78806     12.55053         0.198268     -0.178323     -0.356543
Pb       7.72822     11.77283      4.05291         0.428220     -0.480854      0.911352
Pb       7.80307     11.53625     16.60506         0.012497      0.475301     -0.610272
Pb       7.62312     11.65132      8.34862         0.022340     -0.432558     -0.171396
Pb       7.73317     11.64446     12.51392         0.069928      0.105514      0.197954
Pb      11.67268      4.02061      4.20756        -0.226096     -0.364915     -0.449282
Pb      11.75176      3.82219     16.48294        -0.500021      0.100772      0.944015
Pb      11.81081      0.21808      4.21490        -0.356850     -0.466495      0.028499
Pb      11.69854     15.55776      0.02062        -0.113535     -0.037676     -0.292641
Pb      11.65703      3.82457      8.23349         0.268534      0.531956     -0.114344
Pb      11.53489     15.44914      8.21022         0.352876      0.217487      0.085923
Pb      11.62956      3.84590     12.42413         0.196904      0.159483     -0.007879
Pb      11.84524     15.52095     12.42269        -1.254912      0.429600      0.858499
Pb      11.74526      7.72490      4.01604        -0.190306      0.302220      0.170245
Pb      11.64566      7.73251     16.57975         0.350662      0.154309     -0.021246
Pb      11.69568      7.85141      8.08329        -0.251351     -0.912060      1.215357
Pb      11.75325      7.67168     12.48306        -0.365041     -0.174626     -0.468911
Pb      11.56866     11.88850      4.27622         0.806941     -0.647731     -0.743807
Pb      11.86559     11.78228     16.60198         0.169010      0.032618     -0.098659
Pb      11.68497     11.62975      8.20167         0.137861     -0.135955      0.257322
Pb      11.56787     11.60955     12.35436         0.530070      0.125319      0.640808
Ti       2.01664      1.89915      2.37059        -0.969063     -0.066713     -1.084727
Ti       1.93646      1.84643     14.79491        -0.592297      0.616187     -1.333725
Ti       2.15738     13.52871      2.28963        -1.662031      0.566674     -0.554562
Ti       1.95568     13.59304     14.64277         0.128134      0.263733      0.085594
Ti      13.66732      1.90545      2.20643        -0.036987      0.477693     -0.194810
Ti      13.61236      1.98226     14.77867         0.454176     -0.349927     -1.422643
Ti      13.70719     13.60610      2.28192        -0.345310      0.533161     -0.149391
Ti      13.73067     13.73586     14.63359        -0.767246     -0.696771      1.561345
Ti       1.90658      2.08811      6.36959         0.432551     -2.137492      0.149970
Ti       1.92623     13.62087      6.46979         1.128878      0.912210      0.005612
Ti      13.62718      1.96760      6.30430        -0.272079     -0.151822      0.292256
Ti      13.70952     13.65423      6.30468        -0.351991      0.431650      0.988489
Ti       1.98954      1.90630     10.53380        -0.917727      0.169392      0.451076
Ti       1.90255     13.58355     10.49359        -0.274685      1.003769     -0.166508
Ti      13.54314      1.88615     10.37341         0.876381      0.154525      1.770197
Ti      13.56843     13.66943     10.55904         0.952878     -0.986018     -0.982962
Ti       1.94914      5.79579      2.23703        -0.168193      0.129220      0.915563
Ti       1.90563      5.75528     14.69673         0.405987     -0.042210     -0.979721
Ti      13.73095      5.89153      2.07264        -0.929337     -0.742662      1.699706
Ti      13.63550      5.95598     14.72753         0.438720     -0.806519     -0.778152
Ti       2.03497      5.96332      6.25119        -0.851150     -0.574743      1.015522
Ti      13.75396      5.86884      6.20262        -0.413376     -0.589171      1.895533
Ti       1.87645      5.93769     10.46052         0.450975     -1.057235      1.696179
Ti      13.69011      5.70786     10.40758        -1.399000      0.691199     -1.173736
Ti       1.95549      9.74451      2.26274         0.681902     -0.220703      0.147488
Ti       1.91305      9.77119     14.70192         0.272515     -0.901067      0.089853
Ti      13.59972      9.80686      2.24959         0.103266      0.249548      0.902516
Ti      13.73139      9.79655     14.65999        -1.138351      0.181261     -0.125379
Ti       1.88799      9.74857      6.34806         0.315108     -0.237206      0.174226
Ti      13.62715      9.68966      6.35772         0.003655      0.617574     -0.942676
Ti       1.84445      9.77646     10.56194         0.728921     -0.195656     -0.882347
Ti      13.54820      9.59855     10.56938        -0.186550      0.572896     -0.802038
Ti       5.88778      1.84681      2.31205        -0.232188      0.400627     -1.579611
Ti       5.76694      1.93519     14.60393         0.428391     -0.054865      0.444552
Ti       5.88260     13.47818      2.11962        -0.562868      1.599650      0.595634
Ti       5.90934     13.66544     14.61741        -0.550596     -0.501179     -0.509570
Ti       5.86358      1.91734      6.42145         0.184632     -0.060108      0.544901
Ti       5.85069     13.72589      6.51175        -0.486562     -1.271749     -0.017614
Ti       5.91680      2.09225     10.57829        -0.300197     -1.177236     -0.188186
Ti       5.88103     13.59800     10.61874        -0.205999      0.637662      1.151807
Ti       5.76080      5.74610      2.21660         0.583866      0.968772     -0.984015
Ti       5.81290      5.81363     14.59570         0.112833      0.497420      2.200783
Ti       5.93970      5.89161      6.37832        -0.355237     -0.192648     -0.242829
Ti       5.81096      5.91052     10.44839         0.521404     -0.387895      0.762161
Ti       5.85500      9.75738      2.12035        -1.291956     -1.753040      0.813099
Ti       5.82113      9.76442     14.72553        -0.230743     -1.089229      0.332537
Ti       5.78578      9.69772      6.32948         0.802626      0.727091      0.569347
Ti       5.76650      9.69388     10.69977         0.240299      0.505357     -1.202410
Ti       9.78027      1.90659      2.22772         0.393666      0.723164      0.687863
Ti       9.65333      1.95263     14.67288         0.282649     -0.594728      0.135149
Ti       9.71061     13.70305      2.20936         1.344467      0.124606     -0.027030
Ti       9.79953     13.57709     14.67606         0.126687      1.386276     -1.110390
Ti       9.71326      1.87381      6.43093         0.216262      0.163945     -0.721846
Ti       9.72537     13.49076      6.34293        -0.606160      1.552483      0.776977
Ti       9.76514      1.91825     10.55254        -0.429764     -0.179611     -1.231604
Ti       9.72525     13.61760     10.62007        -0.194030      0.267860     -0.114936
Ti       9.76490      5.76099      2.14507         0.343524      0.268603      0.821219
Ti       9.71352      5.77774     14.75981        -0.478136     -0.335493     -0.890978
Ti       9.81548      5.80776      6.36260        -0.113844     -0.088317     -0.611801
Ti       9.74684      5.83652     10.54433         0.333371      0.067174     -1.007192
Ti       9.76013      9.78835      2.11264         0.481976     -0.111625      2.452465
Ti       9.79610      9.73669     14.70734         0.623348     -0.208346      0.065112
Ti       9.68082      9.73354      6.22150        -0.464298     -0.779899      0.895539
Ti       9.67454      9.71353     10.56177         0.233379     -0.565726     -1.147815
O       1.93391      1.93263      0.59047         0.508118     -0.288250     -0.520089
O       1.92913      1.71954     13.00697        -0.043682      0.653745      0.198159
O       2.06994     13.37263      0.49277         0.338612      0.643924     -0.314111
O       1.89726     13.64275     12.88561        -0.023603      0.020825      0.663418
O      13.62106      1.93347      0.39976        -0.057700     -0.426039      0.291283
O      13.68198      2.03088     12.97770        -0.423456     -0.335066      0.519125
O      13.55230     13.66686      0.46760         0.339897     -0.192665      0.346173
O      13.66430     13.74864     12.91861         0.025043     -0.262534     -1.614009
O       1.88596      1.84586      4.57856         0.551551      0.186702      0.051151
O       1.93684     13.68848      4.67267         0.357572     -0.309273     -0.457731
O      13.70685      1.96960      4.48716         0.088986      0.205683      0.333708
O      13.74302     13.58007      4.58144         0.245468      0.078747     -1.293554
O       1.87271      1.92401      8.76965         0.009750      0.140182     -0.755384
O       2.02440     13.51566      8.72047        -0.403626      0.382101      0.328429
O      13.62058      1.83840      8.67863         0.219861      0.004506     -1.754327
O      13.55602     13.68995      8.77547         0.019226     -0.204893      0.110377
O       1.87804      5.74623      0.52098         0.028013      0.163619     -1.877029
O       2.11899      5.74370     12.86050        -0.633275      0.268958      0.878649
O      13.68870      5.98553      0.33764         0.106305     -0.093585     -1.136694
O      13.60368      5.82862     12.92765        -0.189899      0.327348      0.593365
O       2.02089      5.96023      4.51830         0.060249     -0.229178     -0.774520
O      13.65526      5.86581      4.43344         0.013016     -0.164487      0.221098
O       1.77987      5.97876      8.75296         0.308398     -0.723860     -1.227877
O      13.77492      5.79151      8.60114         0.057738      0.015898      1.461675
O       2.00060      9.88952      0.48993        -0.582082     -0.464840     -0.646574
O       1.97581      9.70568     12.90984        -0.291316     -0.279243      0.067060
O      13.64999      9.87963      0.49526         0.187973     -0.012984     -0.672533
O      13.68024      9.66844     12.82294         0.115597      0.147275      0.853972
O       1.98593      9.64380      4.57514         0.125620      0.363320      0.391964
O      13.64082      9.69866      4.60232         0.201926     -0.027158      0.052228
O       1.90470      9.72917      8.78861        -0.019941     -0.022390      0.582318
O      13.55686      9.71644      8.76870        -0.012022     -0.018114      0.089577
O       5.81535      1.94876      0.45416         0.059311     -0.459397      1.402354
O       5.86033      1.97892     12.82561        -0.118663      0.252277      0.283477
O       5.75579     13.63862      0.38148         0.091410     -0.043918     -0.595981
O       5.87605     13.43287     12.81312         0.129327      0.881331      1.501193
O       5.84529      1.79604      4.63509         0.033458      0.169748      0.010308
O       5.99755     13.59572      4.74544        -0.339736      0.141962     -0.451979
O       5.95173      1.99520      8.77408        -0.598731      0.085641      0.387070
O       5.68707     13.44422      8.88435         0.465638      0.195483     -0.569414
O       5.97583      5.61964      0.45346        -0.381454      0.431719      0.375044
O       5.89471      5.86811     12.83264        -0.731316     -0.156618     -0.134060
O       5.76566      5.88420      4.60596         0.339150     -0.232397      0.170601
O       5.94441      5.86310      8.66408        -0.412478     -0.421784     -0.434642
O       5.87193      9.60342      0.37331         0.201110      0.558866      0.054099
O       5.80981      9.68486     12.95049        -0.028601     -0.769796     -0.193904
O       5.75937      9.79733      4.58472        -0.004127     -0.062506     -0.799384
O       5.82170      9.74871      8.85292         0.278827     -0.160130      0.579274
O       9.72511      1.90836      0.48925         0.020291     -0.324608     -0.710669
O       9.72152      2.12980     12.89376        -0.350306     -0.664877     -0.569804
O       9.80958     13.86390      0.43797        -0.270620     -0.477844      0.114675
O       9.84717     13.55332     12.86589        -0.588777      0.092852      0.731232
O       9.90177      1.91720      4.64635        -0.543312      0.021623     -0.075508
O       9.59081     13.54287      4.58431         0.111198     -0.258009     -0.379016
O       9.77834      1.71859      8.70301         0.040181      0.414790      1.079444
O       9.84026     13.74437      8.82879         0.035039     -0.531240     -0.230654
O       9.85910      5.93856      0.36451        -0.614472     -0.256874      0.151395
O       9.82713      5.75946     12.93797        -0.058596     -0.202525     -0.161278
O       9.87413      5.64391      4.55503        -0.062334      0.216979      0.456322
O       9.71078      5.85523      8.73520        -0.283260      0.088256      0.306782
O       9.65437      9.62994      0.37062         0.486873      0.218881     -0.445325
O       9.74207      9.72575     12.96254         0.135811      0.060109     -0.061106
O       9.93326     10.02817      4.50942        -1.064437     -0.645271      0.116287
O       9.64905      9.61245      8.71369        -0.223444      0.149287      1.242232
O       3.95783      1.97238      2.65277        -0.123204     -0.234034     -0.216437
O       3.83016      1.96479     15.02546         0.757576      0.031142      0.145581
O       4.06209     13.59926      2.71868        -0.450390     -0.609712     -0.313545
O       3.94344     13.35672     14.90032        -0.509461      1.142096     -0.246684
O       0.09764      1.73840      2.58824        -0.587523      0.533660     -0.202908
O      15.59748      1.85327     15.12316         0.000048      0.035375      0.042499
O       0.13069     13.56533      2.47476        -0.681816      0.457837      0.175204
O       0.03147     13.63859     15.00980         0.511468      0.033692      0.169941
O       3.90888      1.81600      6.86515        -0.349482      0.639741     -0.640434
O       3.91303     13.67368      6.77404        -0.341186      0.005995     -0.359796
O      15.59438      2.10112      6.66094         0.155636     -0.531299      0.017571
O       0.05646     13.58267      6.76001        -1.231641      0.164818      0.061302
O       3.85766      1.95062     10.74579         0.629764      0.232550      0.202470
O       3.83902     13.61236     11.06882         0.232120     -0.550047     -1.154237
O      15.54942      1.90375     10.88762        -0.215012     -0.779055     -0.598076
O      15.57877     13.82420     10.82226        -0.226688     -0.689967     -0.257813
O       3.88874      5.73834      2.43803        -0.309584     -0.332360      0.345145
O       3.85100      5.65194     14.97314         0.306729      0.097797      0.045754
O      15.56027      5.87800      2.49037         0.819451      0.160240      0.163864
O      15.57575      5.95216     14.95971         0.415361     -0.459531      0.198587
O       3.91056      6.05634      6.71510        -0.169773     -1.132315     -0.041094
O       0.02674      5.83485      6.53580        -0.011332     -0.272006     -0.098809
O       3.90017      5.88226     10.71112        -0.987829     -0.534950      0.085261
O      15.49418      5.80994     10.91934         1.047634     -0.052300     -0.327019
O       3.94801      9.86570      2.48530         0.030040     -0.049840      0.259983
O       3.90866      9.69141     15.12875        -0.787596      0.005797     -0.712351
O       0.11902      9.82119      2.72216        -0.921914     -0.439902     -0.908951
O      15.60364      9.77976     15.01139         0.538971     -0.239247      0.004634
O       3.85303      9.57193      6.71627        -0.385594      0.488489     -0.307874
O      15.51675      9.73070      6.79570         0.854892      0.155327     -0.526289
O       3.89002      9.73854     10.93564        -1.053582     -0.377620     -0.059288
O      15.56322      9.63265     10.79247         0.056126      0.461363      0.496041
O       7.81594      1.92195      2.62636        -0.401905      0.265757     -0.282905
O       7.78572      1.87183     15.04681        -1.184220     -0.200337     -0.258791
O       7.70301     13.69261      2.45459         1.489261      0.050517     -0.022240
O       7.76050     13.52877     15.04423        -0.126077      0.400467     -0.018381
O       7.85612      1.94263      6.73259        -1.161825     -0.176008     -0.198791
O       7.77209     13.55778      6.82888         0.554817     -0.190578      0.238265
O       7.76437      1.84266     10.78736         0.713129      0.416359      0.445032
O       7.81027     13.57427     10.78901        -0.368079     -0.076470      0.133893
O       7.81609      5.75656      2.67313         0.615038      0.616839     -0.817882
O       7.76125      5.88881     14.84521         0.362894     -0.141554      0.276223
O       7.79858      5.73149      6.67859         0.058276     -0.099805     -0.335290
O       7.77686      5.81076     10.85994         0.558473      0.361662      0.059370
O       7.76854      9.74219      2.47474         0.905913     -0.435834     -0.087203
O       7.76061      9.66006     15.06687         0.931644      0.008464     -0.351065
O       7.70083      9.67506      6.53125         1.123732      0.431728      0.245398
O       7.81560      9.72169     11.06471        -0.330355     -0.580420     -0.619315
O      11.74813      1.90098      2.56109         0.318134     -0.115423     -0.352933
O      11.56840      2.01508     14.95331         1.332248     -0.426109      0.300706
O      11.72205     13.62748      2.58104        -0.662039      0.024280     -0.102609
O      11.69610     13.61815     14.95783         0.450281      0.344393      0.342108
O      11.75152      1.98837      6.55997         0.176297     -0.479781      0.462343
O      11.71733     13.59588      6.53760        -0.740039     -0.388815      0.317106
O      11.65372      1.84297     10.77441         0.107187      0.362275      0.293244
O      11.62692     13.58477     10.94573         1.286227      0.039842     -0.251697
O      11.79041      5.84216      2.41129        -0.699451      0.060961      0.212782
O      11.74330      5.75401     14.99636        -0.363096      0.517652      0.126458
O      11.71816      5.79279      6.68691         0.005095      0.122321     -0.369717
O      11.68381      5.75215     10.68950         0.245215      0.065981      0.708710
O      11.74946      9.92712      2.66474        -1.044829     -0.607533     -1.235425
O      11.75660      9.65066     14.99658        -0.504106      0.721370     -0.037049
O      11.63452      9.64195      6.69664         0.283567      0.851712     -0.423139
O      11.61250      9.67492     10.80024         0.874146      0.397758      0.373981
O       1.89895      3.88087      2.59744         0.168810     -0.795708      0.415583
O       1.83868      3.85061     15.16190         0.189575     -0.002242     -0.767394
O       2.24137     15.46525      2.47879        -0.470412      0.724325      0.243767
O       2.00744     15.54836     15.16540         0.136886     -1.019911     -0.071767
O      13.73748      3.88630      2.37764         0.311883     -0.309525      0.257479
O      13.69067      3.88311     15.10057        -0.055181      0.429676     -0.344174
O      13.68483     15.58024      2.59706         0.120110     -0.277725     -0.205415
O      13.69069      0.00226     14.98575        -0.385583     -0.109784      0.240100
O       1.99390      3.91690      6.50318         0.440088      0.634555      0.650433
O       1.81951      0.02151      6.73946         0.273997     -0.220458      0.045513
O      13.62767      3.92593      6.67678         0.325165     -0.268035     -0.473655
O      13.63989     15.59293      6.42514         0.499570      0.244741      0.608147
O       1.78341      3.82110     10.86653         1.091629      0.585768     -0.406867
O       2.01062     15.52752     10.82031        -0.217296      0.627470     -0.215467
O      13.58383      3.79224     10.67156         0.273643      0.363332      0.282985
O      13.51378     15.58014     10.89073         0.534804      0.126316     -0.343124
O       2.06918      7.72542      2.47294        -0.411425      1.178356      0.058275
O       1.97844      7.70338     15.02737        -0.139400      0.637835     -0.120248
O      13.68364      7.87890      2.47233         0.042540     -0.457102     -0.086919
O      13.73223      7.90284     15.11258        -0.368787     -0.691981     -0.520971
O       1.84614      7.78547      6.65669        -0.029604      0.654396      0.038355
O      13.66210      7.76423      6.60185        -0.087720     -0.057082      0.044543
O       1.74981      7.75212     10.81765         0.848142      0.671229      0.437903
O      13.60366      7.71406     10.80276         0.038295      0.083543      0.188675
O       1.96714     11.67245      2.59316         0.690909      0.078887      0.677226
O       1.95991     11.60420     14.94026        -0.221416      1.049214      0.001731
O      13.71902     11.69158      2.59184         0.288107      0.867422     -0.027586
O      13.71774     11.76112     15.01491        -0.262699     -0.681349     -0.160315
O       1.91115     11.65071      6.72982         0.240400     -0.407787     -0.488571
O      13.66083     11.70762      6.55987        -0.258532     -0.493292      0.897285
O       1.78003     11.72778     10.90854         0.328169     -1.024206     -0.155671
O      13.72717     11.68620     10.80452        -0.323099      0.139948      0.278670
O       5.86700      3.91081      2.57904        -0.041941     -1.694478      0.529920
O       5.90460      3.78240     15.08829        -0.464327      0.680608     -1.102037
O       5.85190     15.56589      2.57753        -0.233574      0.120049     -0.373286
O       5.72900     15.59838     14.88463         0.263135     -1.048734      0.180999
O       5.74346      3.77778      6.67350         0.051419      1.240088      0.184742
O       5.91296     15.55731      6.94062        -0.138993      0.506079     -0.413637
O       5.89809      3.98604     10.81501        -0.455756     -1.030445      0.017929
O       5.88480     15.58473     10.92912        -0.429339     -0.684211     -0.383773
O       5.67409      7.72327      2.56843         0.997716      0.851781     -0.288561
O       5.72833      7.66589     15.16056         0.216562     -0.008049     -0.959671
O       5.93300      7.77789      6.71230        -0.208939     -0.105707     -0.010679
O       5.84753      7.71831     10.73349         0.172642      1.237111      0.742497
O       5.99006     11.65202      2.48930        -0.602390      0.146646     -0.331397
O       5.91418     11.58005     14.96484         0.022643      0.943377      0.321778
O       5.71597     11.62883      6.80462         0.435207     -0.024327     -0.363905
O       5.89426     11.56439     11.06147        -0.329873      0.897063     -0.833920
O       9.88460      3.84520      2.52054        -0.540434      0.877085     -0.211953
O       9.60201      3.85377     15.04327         0.391672      0.748677      0.118699
O       9.73685      0.04717      2.55994        -0.118981     -1.440687      0.175016
O       9.58824     15.55547     14.92922         0.468197      0.035439      0.098186
O       9.80193      3.80368      6.77152        -0.266993      0.577933      0.036807
O       9.72569     15.49118      6.67981         0.047369     -0.255247     -0.128270
O       9.70588      3.83576     10.79938         0.025235      0.030162     -0.072929
O       9.71272     15.56443     10.95412         0.014003      0.128439      0.093651
O       9.87471      7.77261      2.59673        -0.680701      0.641408     -0.708746
O       9.78547      7.73532     14.85206        -0.061494      0.593416      0.765330
O       9.67861      7.70753      6.47654         0.158842      0.717232      0.275422
O       9.79670      7.77655     10.89565        -0.579164     -0.465701      0.285822
O       9.67098     11.75026      2.38259        -0.151091     -0.248720     -0.214929
O       9.75900     11.73486     15.01300        -0.200264     -1.642842      0.511947
O       9.69076     11.57033      6.80060         0.273088      1.126439     -0.412878
O       9.71395     11.61354     10.97301         0.043866      0.423221     -0.795031
