  # total energy = -7882.55890483 
CRSYTAL
PRIMVEC
    15.6080000000000005    0.0000000000000000    0.0000000000000000
     0.0000000000000000   15.6080000000000005    0.0000000000000000
     0.0000000000000000    0.0000000000000000   16.6239999999999988
PRESSURE
-1.07664 -1.36069 -1.30496 0.209684 -0.469253 -0.049934
PRIMCOORD
320 1
Pb       3.76154      3.82892      4.14537         0.480753     -0.035930      0.064503
Pb       3.77292      3.76983     16.51454         0.437551      0.139717      0.067529
Pb       3.91006     15.45814      4.23506         0.465699      0.420063     -0.754982
Pb       4.00715      0.00568     16.61223         0.031623     -0.208989     -0.449965
Pb       0.02875      3.94472      4.15033        -0.049315     -0.406617      0.079099
Pb       0.01977      3.91578      0.01556         0.174090     -0.088651     -0.541015
Pb       0.05091     15.54106      4.28316        -0.134002      0.330530     -0.803996
Pb      15.60085     15.59953     16.60699         0.285770     -0.164495      0.032129
Pb       4.05229      3.96483      8.23998        -0.262800     -0.144995     -0.546072
Pb       3.88464     15.44539      8.29187        -0.030556      0.507337      0.186924
Pb       0.04121      3.93013      8.29116         0.105078     -0.087699     -0.372725
Pb      15.53419     15.56227      8.37038        -0.204464      0.336191     -0.288334
Pb       3.91978      3.77601     12.37998        -0.223394      0.744507      0.570097
Pb       3.97732      0.14291     12.45215        -0.450153     -0.572557      0.175582
Pb      15.55965      3.98238     12.49555         0.094095     -0.135351     -0.150738
Pb       0.00456     15.46169     12.31557        -0.465220      0.808832      1.045002
Pb       3.97271      7.70685      4.06953         0.102478      0.241184      0.270619
Pb       3.89490      7.84693      0.03943        -0.368303     -0.291475     -0.793909
Pb      15.45752      7.72025      4.13983         0.001558      0.163621     -0.296866
Pb      15.59220      7.75620      0.01155         0.493955     -0.149648     -0.833117
Pb       3.80664      7.81224      8.31151        -0.009642     -0.358643     -0.658724
Pb       0.05434      7.77512      8.17042        -0.022893     -0.031401      0.322836
Pb       3.82356      7.75873     12.39637         0.051605     -0.075518      0.434465
Pb       0.01474      7.74124     12.36581        -0.325332      0.317110      0.243897
Pb       3.93931     11.61645      4.23965        -0.060766      0.098425     -1.111835
Pb       3.87081     11.70172      0.06296        -0.378975      0.100840     -0.141106
Pb       0.03751     11.61593      4.17788        -0.323892      0.287617     -0.394439
Pb      15.60086     11.55665     16.53804         0.113774      0.552125      0.139308
Pb       3.92403     11.61465      8.42829        -0.511351      0.386737     -0.027650
Pb       0.06417     11.74257      8.32837        -0.250309     -0.093032      0.048023
Pb       3.78080     11.66718     12.52809         0.094704      0.322746     -0.803097
Pb      15.42069     11.84668     12.50994         0.519762     -0.958762      0.017176
Pb       7.87022      3.99204      4.10491        -0.479254     -0.056232      0.027126
Pb       7.81625      3.79185      0.06687        -0.408410     -0.020646     -0.570657
Pb       7.90591      0.05039      4.21702        -0.494284     -0.388867     -0.291861
Pb       7.80611     15.51222     16.53650        -0.752569      0.073286      0.117588
Pb       7.92507      3.85089      8.17589        -0.655549     -0.012180     -0.244888
Pb       7.70190      0.02022      8.21783         0.303696     -0.189343      0.100466
Pb       7.83898      3.93650     12.56743         0.248563      0.159768     -0.609583
Pb       7.75435     15.59079     12.34570         0.380895      0.514785      0.132326
Pb       7.89958      7.77618      4.18240        -0.481937     -0.289348     -0.535401
Pb       7.71708      7.56640      0.08641         0.691556      0.809974     -0.589464
Pb       7.71252      7.73463      8.29669        -0.264890      0.016921     -0.380047
Pb       7.63735      7.97555     12.53145         0.189192     -0.493703     -0.253467
Pb       7.79762     11.61886      4.14905        -0.011210      0.250319     -0.720938
Pb       7.86019     11.67423      0.03663         0.124024      0.086839      0.001207
Pb       7.92408     11.60954      8.44076        -0.566360      0.363180     -0.426355
Pb       7.75933     11.84176     12.47823        -0.210986     -0.444906     -0.383266
Pb      11.58881      3.86546      3.96105         0.527435      0.214635      0.364679
Pb      11.62249      3.72421     16.61563         0.070921      0.534115     -0.204469
Pb      11.85461      0.01340      4.15476        -0.115016     -0.000253     -0.511523
Pb      11.78094     15.59801     16.56607        -0.417656     -0.243203      0.245315
Pb      11.66507      3.75133      8.20893         0.378854      0.122142     -0.120880
Pb      11.82582     15.52358      8.37224         0.036269      0.189383     -0.216604
Pb      11.56583      3.94543     12.32729        -0.067205     -0.355283      0.019036
Pb      11.59983      0.08692     12.53832         0.074032      0.170058     -0.873530
Pb      11.65655      8.09193      4.23179         0.166171     -0.965419      0.026033
Pb      11.80063      7.74485     16.59561        -0.629230      0.287261     -0.555016
Pb      11.70883      7.67272      8.37871         0.248176      0.353571     -0.797679
Pb      11.82194      7.73401     12.44279        -0.214360     -0.079259     -0.147088
Pb      11.71315     11.94693      4.08021        -0.124794     -0.470848     -0.122474
Pb      11.53395     11.65692      0.05590         0.334752      0.206623     -0.536789
Pb      11.54290     11.60840      8.27179         0.395628      0.155449     -0.052998
Pb      11.68579     11.54943     12.54280        -0.065065      0.295480     -0.209492
Ti       1.88789      1.92487      2.19568         0.087160     -0.826851     -0.575501
Ti       1.85006      1.81917     14.70472         0.442997      0.369276      0.709929
Ti       1.96752     13.58153      2.26277        -0.262891      0.129523     -0.586478
Ti       1.94051     13.57289     14.67085         0.064010      0.492949      0.436048
Ti      13.60468      1.95176      2.12850         0.595977     -0.228761      0.488202
Ti      13.53880      2.03792     14.60778         0.345306     -0.225977     -0.452585
Ti      13.73595     13.64003      2.20084        -0.793339      0.611808     -0.773622
Ti      13.61293     13.71238     14.72747         0.076007     -1.347993     -0.655968
Ti       1.88341      1.94470      6.43124        -0.060813      0.688849     -0.589800
Ti       1.88377     13.70043      6.37256        -0.142630     -0.642560      0.107260
Ti      13.63750      2.00069      6.23312         0.562080     -0.254296      0.745843
Ti      13.64690     13.63993      6.40115        -0.200692     -0.027693      0.089828
Ti       1.92151      1.96779     10.52152        -0.342223     -0.023847     -1.096787
Ti       1.88967     13.69172     10.56495         1.337155     -0.731869      0.201094
Ti      13.67417      1.96085     10.59091        -1.214349     -0.782574     -0.688074
Ti      13.59800     13.57347     10.58203        -0.663829      0.711411     -0.359932
Ti       1.94185      5.82614      2.19101         0.137400      0.341187     -0.628874
Ti       2.02998      5.74965     14.61240        -0.231041      0.689240      1.323838
Ti      13.60136      5.90717      2.09093        -0.231265     -0.445655      1.096953
Ti      13.65079      5.83028     14.59462        -0.085062      0.726684      0.465032
Ti       1.93626      5.91164      6.26301         0.507444     -0.724778      0.476680
Ti      13.65091      5.83497      6.28663        -0.064534      0.228725      0.144174
Ti       1.97107      5.74332     10.53262        -1.005110      1.038668     -0.972656
Ti      13.65980      5.76088     10.38250         0.068242      0.387270      0.695928
Ti       1.85920      9.66201      2.26024         0.778387      0.628990     -0.573574
Ti       1.97242      9.71843     14.66683        -0.789939     -0.646341     -0.631163
Ti      13.57858      9.78801      2.17787         0.173966     -0.037407      0.207776
Ti      13.65942      9.73260     14.61884        -0.323190     -0.004460     -0.317873
Ti       1.86617      9.81719      6.26606         0.261270     -0.581943      0.593209
Ti      13.61140      9.80098      6.43374        -0.356967     -0.376809      0.364326
Ti       1.88863      9.71924     10.60268        -0.961618      0.287604      0.413747
Ti      13.59183      9.70237     10.40111         0.937715     -0.244671      0.796793
Ti       5.83111      1.94214      2.24109        -0.610051      0.033409     -0.122303
Ti       5.79934      2.02404     14.59694        -0.038498     -0.583971      1.912537
Ti       5.84141     13.63058      2.17689         0.342161      0.116531      0.712111
Ti       5.84409     13.61015     14.58702        -0.633827      1.303406      1.102756
Ti       5.73538      1.90474      6.31957         0.411041      0.858103     -0.507601
Ti       5.86175     13.59748      6.43089        -0.153546      0.591591     -1.000984
Ti       5.82791      2.01761     10.48526         0.612679     -0.204863     -0.252875
Ti       5.79274     13.71936     10.56681        -0.842115     -0.847691     -0.316956
Ti       5.84796      5.80305      2.14161        -0.153852     -0.101138      3.579709
Ti       5.86284      5.89622     14.60617        -0.588061     -0.266641     -0.902428
Ti       5.91149      5.93179      6.36385        -0.720683     -0.077991     -0.719413
Ti       5.81685      5.86832     10.50422         1.050953     -0.204217      0.210974
Ti       5.81506      9.68540      2.12429        -0.166243      0.321891      2.183859
Ti       5.88063      9.81689     14.71268        -0.401342     -1.057977     -0.647276
Ti       5.69347      9.91145      6.34098         0.698429     -2.104774      0.639651
Ti       5.73471      9.74651     10.50919         0.195117      1.170450      0.614652
Ti       9.65687      1.89335      2.17099         0.618864     -0.014805      0.055139
Ti       9.63100      1.90693     14.67854        -0.180939      0.804341     -1.577289
Ti       9.69036     13.72137      2.16168        -0.130429     -0.727482      0.300580
Ti       9.74122     13.66167     14.64942         0.176315     -0.530687     -0.207354
Ti       9.78590      1.77013      6.28327        -0.582543      0.902037      0.747401
Ti       9.74897     13.60764      6.31624        -0.121574      0.512930      0.023298
Ti       9.68566      2.00000     10.35115         0.448939     -0.580724      2.134176
Ti       9.78228     13.64143     10.50125        -0.031003      0.539492      0.046423
Ti       9.80809      5.89203      2.16548        -0.513405      0.523805      0.019295
Ti       9.72406      5.88494     14.58790         0.327807     -0.174519      0.024060
Ti       9.80854      5.79939      6.35095        -0.038221      0.022854     -0.712195
Ti       9.72007      5.87561     10.36667        -0.660503     -0.112432      1.520669
Ti       9.76998      9.79420      2.23903        -1.295389      0.000101     -0.912810
Ti       9.73399      9.67003     14.67226         0.218794     -0.206122     -0.445479
Ti       9.61147      9.67898      6.32993         0.596673      0.415348      0.448740
Ti       9.63574      9.75244     10.59302         0.154164      0.151827      0.632142
O       1.89887      1.97291      0.34649         0.179871     -0.145795      0.887770
O       2.02784      1.96379     12.97610        -0.379876     -0.090351     -1.085748
O       1.91443     13.48764      0.48558        -0.104582      0.267143      0.091324
O       1.90134     13.65119     12.90599         0.036787     -0.066384     -0.556612
O      13.52833      1.86543      0.34206        -0.094977     -0.033240     -0.684397
O      13.42812      2.11238     12.79674         0.427773     -0.351769      1.369357
O      13.68145     13.62509      0.39132        -0.154239      0.439149     -0.242844
O      13.56557     13.59746     12.87951         0.240577      0.063343      0.368936
O       1.72478      1.93910      4.62379         0.604037     -0.001697     -0.150840
O       1.72657     13.70539      4.54202         0.634211     -0.241350      0.692645
O      13.57402      1.93465      4.44975         0.152760      0.284419      0.596846
O      13.66294     13.62101      4.60761        -0.392919      0.051045     -0.143643
O       1.79857      1.99613      8.71901         0.154181     -0.151575      0.326865
O       1.78927     13.83416      8.78227         0.249653     -0.657945      0.197784
O      13.61898      1.79596      8.76497        -0.136193      0.406681      0.241688
O      13.70892     13.73895      8.78782        -0.215912      0.009289      0.019818
O       1.99578      5.82783      0.38775        -0.137264     -0.389347      0.840000
O       2.04396      5.60714     12.86784        -0.607589      0.393463     -0.816983
O      13.43301      6.01054      0.34542         0.472690     -0.555941     -0.240281
O      13.65732      5.87182     12.81072        -0.239516     -0.258523      0.180095
O       1.87684      5.84203      4.48151        -0.160464      0.266452     -0.466422
O      13.78492      5.89773      4.49460        -0.328706     -0.214116     -0.029658
O       1.82050      5.90761      8.71651         0.359964     -0.277273      0.155117
O      13.72134      5.67328      8.60494        -0.209034      0.447529      0.290182
O       1.90199      9.81443      0.44862        -0.012045     -0.328049      0.280568
O       1.86754      9.67231     12.85017         0.496759      0.032182      0.902822
O      13.46376      9.83319      0.41050         0.176985     -0.117086     -0.029241
O      13.59560      9.63884     12.79884         0.030131      0.170184      0.968849
O       1.86357      9.81945      4.50046        -0.071223     -0.125187     -0.531923
O      13.59489      9.68456      4.66475         0.081044      0.227152     -0.634123
O       1.88150      9.65947      8.82902         0.270551      0.207930     -0.298879
O      13.66098      9.69542      8.62330        -0.115713      0.083894      0.141972
O       5.85965      1.97402      0.43507        -0.184072     -0.246836      0.295584
O       5.64777      1.98345     12.85977         0.448448      0.172151     -1.205437
O       5.97916     13.79820      0.42532        -0.645652     -0.273686     -0.247433
O       5.80061     13.69329     12.82698        -0.127272     -0.282457      0.124470
O       5.64963      1.95727      4.52276         0.575877      0.080528      0.913413
O       5.60240     13.56158      4.58407         0.612765     -0.064118      1.529482
O       5.75378      2.00377      8.71616         0.290114     -0.281635     -0.411717
O       5.86556     13.86709      8.74086        -0.295978     -0.342806     -0.212130
O       5.87696      6.02679      0.47009        -0.140349     -0.246179     -2.895473
O       5.84704      5.81056     12.77333         0.099102      0.296506      0.454576
O       5.87900      6.03968      4.57721         0.100768     -0.683410      0.348168
O       5.92126      5.91474      8.70655        -0.511993     -0.291761      0.247738
O       5.81074      9.57932      0.39532         0.055363      0.333237     -0.847401
O       5.88475      9.70007     12.86000        -0.164226      0.458866      1.234568
O       5.67408      9.89024      4.56930         0.453537      0.109210      0.035280
O       5.61330      9.91119      8.73513         0.195791     -0.729319     -0.255850
O       9.66507      2.01097      0.34717         0.056389      0.154523     -0.125566
O       9.64974      1.98901     12.85216         0.026937     -0.405601      0.964274
O       9.62029     13.60722      0.36418         0.083714     -0.000671     -0.189160
O       9.82584     13.74333     12.85020        -0.397005     -0.140755      0.555904
O       9.71384      1.84881      4.51025         0.200077     -0.194000     -0.597461
O       9.60067     13.81779      4.50818         0.744009     -0.678239      0.510997
O       9.78709      2.05080      8.59853        -0.211046     -0.231982     -0.713611
O       9.70227     13.57032      8.67715        -0.228620     -0.214174      0.865162
O       9.68509      5.75529      0.35365         0.144811      0.134244      0.733544
O       9.66325      5.92100     12.80919         0.094819     -0.022903     -0.529854
O       9.81839      5.96487      4.55397        -0.633427     -0.420134      0.055503
O       9.82361      5.77560      8.59706        -0.128215      0.196427     -0.054359
O       9.71038      9.91295      0.42415         0.277406     -0.203911      0.008234
O       9.64301      9.61091     12.78406        -0.011999      0.383668      1.081857
O       9.65430      9.73372      4.54803         0.063979     -0.058194      0.357989
O       9.69441     10.10889      8.80483        -0.230873     -0.870126     -0.262870
O       3.87263      2.09119      2.56421        -0.674264     -0.265791     -0.533799
O       3.93101      1.91023     14.97268        -1.051948      0.183944      0.501121
O       3.88521     13.62916      2.49122        -0.701538      0.268017      0.068503
O       3.87380     13.62474     15.09613         0.320806     -0.147194     -0.313229
O      15.52721      1.91778      2.33878         0.261085      0.479049      0.253090
O      15.55188      1.93982     14.99432        -0.868814     -0.270421     -0.280362
O      15.50718     13.69196      2.48678         1.611144     -0.045364      0.308667
O      15.59517     13.58218     14.95045        -0.840327      0.394587      0.102996
O       3.85321      1.96629      6.70949        -0.400780     -0.030260     -0.081098
O       3.76126     13.59876      6.81144         0.430451      0.062315     -0.494582
O      15.58925      2.09447      6.62548        -0.601749     -0.637161      0.139412
O      15.56765     13.63367      6.73572         0.175913     -0.163780      0.003279
O       3.79999      2.01221     10.76194         0.198849     -0.430290      0.119483
O       3.88594     13.62924     10.88881        -1.106113      0.518922     -0.311841
O      15.49104      1.99370     10.90198         1.386808     -0.236633      0.103932
O      15.58959     13.63026     10.87132        -0.548507      0.294127      0.131769
O       3.84534      5.84199      2.61238         0.262761     -0.329603     -0.641500
O       3.92959      5.85660     14.87586        -0.314369     -0.489927      0.461547
O      15.52456      6.02169      2.29952         0.037932     -0.716920      0.313182
O      15.56720      5.83610     14.93713        -0.287088     -0.544309      0.185027
O       3.99599      5.98387      6.71851        -1.157338     -0.688862     -0.078725
O       0.04171      5.87771      6.53529        -0.459639      0.237208      0.256484
O       3.81100      5.84506     10.82141         1.520015     -0.058495     -0.496577
O      15.54173      5.76692     10.91730         0.083915     -0.157099     -0.483368
O       3.88960      9.72382      2.47839        -0.296182     -0.159096     -0.008467
O       3.80168      9.75609     15.06287         0.951293      0.083666     -0.170098
O      15.50057      9.65328      2.42099         0.078632      0.432429      0.330253
O       0.02905      9.70911     15.00927        -0.881725      0.070531      0.007051
O       3.77044      9.91214      6.59901         0.874462     -0.163508      0.404544
O       0.01275      9.71972      6.59769        -1.078420     -0.024185      0.287797
O       3.82550      9.81343     10.98510        -0.040898     -0.595010     -0.454105
O      15.56345      9.64301     10.89948        -0.191831      0.252294     -0.507855
O       7.81304      1.92725      2.43203        -0.568330      0.152919      0.521510
O       7.66009      1.99534     14.87686         1.428371     -0.268544      0.372081
O       7.74247     13.62318      2.46643        -0.305370      0.062099      0.535215
O       7.77055     13.71213     14.92345         0.285160     -0.814060     -0.306468
O       7.81419      1.80977      6.57759        -0.697887      0.038860      0.160695
O       7.79964     13.73349      6.55698        -1.078818     -0.135941      0.289415
O       7.75395      1.97036     10.76774        -0.225849     -0.129205     -0.127719
O       7.62317     13.69479     10.92883         1.919378     -0.216416     -0.224541
O       7.77276      5.85737      2.51616         0.819661      0.360629     -0.027946
O       7.77008      5.97844     14.79732        -0.367160     -0.035728      0.791779
O       7.84034      5.88435      6.66236        -0.273357     -0.039447      0.228915
O       7.81302      5.82326     10.63030        -0.367488      0.402514      0.239947
O       7.84123      9.70522      2.60154        -1.320040      0.289070     -0.246301
O       7.71336      9.83922     15.13033         0.495498     -0.555194     -0.855394
O       7.66879      9.83924      6.65433         0.936548     -0.070219      0.161023
O       7.61086      9.75414     10.81863         1.687008      0.466229     -0.348981
O      11.66942      1.91237      2.41525        -0.707168     -0.079618      0.245962
O      11.58682      1.96817     14.88970         0.379320     -0.023449      0.473954
O      11.60473     13.60700      2.36647         0.506322      0.327211      0.684664
O      11.67054     13.61292     15.04220        -0.273744      0.270935      0.021098
O      11.70580      1.85879      6.60665         0.527733      0.361152     -0.059155
O      11.68000     13.68720      6.70306         0.231367     -0.162618     -0.294206
O      11.54698      1.94449     10.82432         0.323842      0.192760     -0.165538
O      11.65770     13.53946     10.75057        -0.149203      0.323409     -0.060912
O      11.61502      5.83773      2.55167         0.705182     -0.075095     -0.437773
O      11.66886      5.96021     14.76325         0.087597     -0.143660      0.459503
O      11.70036      5.78174      6.61485         0.251069      0.023955      0.171222
O      11.65709      5.93597     10.74364        -0.143500     -0.591258     -0.210472
O      11.59379      9.81255      2.65466         1.665167      0.571991     -0.220500
O      11.63145      9.57991     14.88317         0.497811      0.570371     -0.090318
O      11.59688      9.70907      6.69993         0.250922      0.067883      0.033829
O      11.74731      9.82996     10.78161        -0.941997     -0.145630     -0.131189
O       1.85038      3.84826      2.53457        -0.206487      0.970603     -0.002712
O       1.84329      3.83538     15.03684         0.383670      0.026066      0.099328
O       1.90017      0.03031      2.51181         0.115115     -0.343770      0.041671
O       1.93801     15.50053     15.04019        -0.242725      0.930623      0.126529
O      13.45948      3.92182      2.26259         0.540261      0.288489      0.364131
O      13.53575      3.92450     15.02171         0.190453     -0.533673     -0.118750
O      13.64794      0.01822      2.61660        -0.465230     -0.521771     -0.508410
O      13.44140     15.59532     14.90868         0.756934      0.688082     -0.126085
O       1.93557      3.99014      6.44960         0.360285     -0.464493      0.864627
O       1.83555     15.59834      6.68916         0.172958      0.145146     -0.235275
O      13.72614      3.88893      6.59195        -0.631347     -0.394036     -0.163935
O      13.75144     15.55339      6.61784        -0.389896      0.907317     -0.018170
O       1.89884      3.89623     10.74048        -0.276731     -1.001589      0.412562
O       1.87679      0.01800     10.90411         0.029872      0.318957     -0.231057
O      13.57903      3.85818     10.74251        -0.312550      0.748240      0.125119
O      13.55455     15.60358     10.93863         0.161964     -0.350542     -0.020768
O       1.92712      7.77569      2.46736         0.048361     -0.031318      0.107976
O       1.92544      7.63729     14.98161         0.043691      1.472277     -0.061925
O      13.51608      7.87550      2.48642        -0.240699     -0.354547      0.022106
O      13.70945      7.80782     15.05134        -0.323806      0.014500     -0.362898
O       1.98010      7.83952      6.64936        -0.036248      0.182886     -0.075854
O      13.56345      7.71824      6.69624         0.258138      0.369489     -0.020491
O       1.88616      7.66141     10.89762         0.301873      1.103494      0.063078
O      13.59143      7.69262     10.67813         0.075407      0.808346     -0.108428
O       1.87276     11.65982      2.56461        -0.174623      0.349166      0.207358
O       1.90797     11.67016     14.92698         0.138238     -0.387062      0.150590
O      13.65512     11.76011      2.56814        -0.367497     -1.048753      0.104996
O      13.56611     11.65774     14.84682         0.230159     -0.439591      0.241522
O       1.82694     11.69419      6.75575        -0.018570      0.529223     -0.352015
O      13.62485     11.69751      6.71240         0.130793     -0.268495     -0.032277
O       1.86135     11.72637     10.88706         0.170439     -0.234008     -0.285119
O      13.68075     11.69434     10.77130         0.154323     -0.345314      0.163843
O       5.96320      3.93234      2.44927        -0.338802     -0.156527      0.241091
O       5.85361      3.96503     15.03779        -0.033070     -0.294720     -0.279564
O       5.73920      0.07463      2.63599         0.108096     -0.979552     -0.348592
O       5.82295     15.58148     14.90969        -0.161470      0.087027      0.139285
O       5.83854      3.86057      6.62943         0.113617      0.374752      0.132790
O       5.66761     15.56532      6.59166         0.358827     -0.107235      0.234548
O       5.77259      3.87940     10.85305         0.022649      0.827449     -0.427201
O       5.77774      0.09530     10.89505        -0.116787     -0.298852     -0.151980
O       5.82175      7.77221      2.56757         0.046935      0.659157     -0.286513
O       5.72923      7.82260     14.89167         0.420703      0.179491      0.341797
O       5.81138      7.84834      6.67253         0.281194      0.877561      0.359351
O       5.84401      7.82546     10.74810        -0.647420     -0.581042      0.053786
O       5.70537     11.68009      2.44380         0.695267     -0.032871     -0.175886
O       5.80145     11.71743     15.05590        -0.047540     -0.091943     -0.281150
O       5.83095     11.72174      6.84469        -0.338610      0.948356     -0.456674
O       5.72703     11.75422     10.80908         0.249755     -0.257992      0.079421
O       9.68943      3.84878      2.56409         0.156252      0.538413     -0.283753
O       9.57960      3.92831     14.76712         0.311917     -0.223310      0.791530
O       9.62881     15.59818      2.44868         0.272878      0.288104     -0.116263
O       9.67872     15.57494     14.99278         0.339118      0.445569     -0.183724
O       9.65891      3.86182      6.52446         0.446387      0.029982      0.121480
O       9.77571     15.56020      6.68089        -0.073746      0.008454      0.050657
O       9.63057      3.90837     10.72272         0.524290      0.610055      0.038932
O       9.67805      0.00089     10.74180        -0.065590     -0.503549     -0.109162
O       9.82280      7.84837      2.45162        -0.451886     -0.831719     -0.026794
O       9.71998      7.80777     15.07277        -0.622315      0.075594     -0.159511
O       9.66954      7.80321      6.66850         0.062889      0.337867      0.281965
O       9.71410      7.93819     10.65120        -0.000703     -1.345232     -0.414524
O       9.68023     11.71744      2.46464        -0.057726      0.503510      0.660808
O       9.82913     11.62778     14.88608        -0.563107      0.715871      0.037081
O       9.76157     11.71277      6.57202        -0.356090     -0.075476      0.042192
O       9.64045     11.75696     11.00495        -0.224853     -0.074505     -0.350872
