  # total energy = -7876.34528608 
CRSYTAL
PRIMVEC
    15.6080000000000005    0.0000000000000000    0.0000000000000000
     0.0000000000000000   15.6080000000000005    0.0000000000000000
     0.0000000000000000    0.0000000000000000   16.6239999999999988
PRESSURE
-0.205233 -0.658965 -0.712878 -0.317136 0.251083 -0.065558
PRIMCOORD
320 1
Pb       4.02449      3.93211      4.11283        -0.667063     -0.212252      0.638596
Pb       4.09449      4.05656      0.16407        -0.041552      0.102783     -0.499661
Pb       3.88923      0.03691      3.97000        -0.061709     -0.398930      0.782799
Pb       3.76209     15.57341     16.59501         0.566445     -0.132539      0.019945
Pb       0.09621      3.82308      4.20054        -0.493136      0.724214     -0.756933
Pb      15.52294      3.79649     16.59497        -0.438961     -0.309994      0.112569
Pb      15.56723     15.51399      4.01484        -0.421869     -0.233458     -0.614957
Pb      15.52528     15.56836     16.55918        -0.095007      0.136124      0.075770
Pb       3.63322      3.72866      8.34249         0.323496      0.252533     -0.585962
Pb       3.87702      0.06610      8.23503        -0.154642     -0.321241     -0.260408
Pb      15.49824      3.78816      8.30011         0.084577      0.054869     -0.377681
Pb       0.09145     15.57655      8.22031        -0.525891     -0.019655      0.194328
Pb       3.85295      3.91919     12.44937        -0.352905     -0.233349      0.004069
Pb       3.83343     15.42616     12.37838         0.005028      0.066793      0.142087
Pb       0.01850      3.86861     12.47655         0.534359      0.086088      0.596837
Pb       0.00570      0.29001     12.68250        -0.075194     -0.279626     -0.374336
Pb       3.78904      7.89281      4.24757         0.391792     -0.369832     -0.365088
Pb       3.82898      7.74241     16.57136         0.190689      0.358898      0.344951
Pb       0.18606      7.90577      4.26512        -0.866863     -0.367619     -0.489698
Pb       0.03690      7.74296     16.60473        -0.641731      0.079917     -0.287693
Pb       3.96381      7.65595      8.22267         0.296548      0.647532     -0.541181
Pb      15.31523      7.72632      8.64195         0.352691      0.183565     -0.765884
Pb       3.92637      7.86510     12.41172         0.097901      0.169340      0.236256
Pb      15.55272      7.98122     12.61667        -0.088427     -0.768250     -0.611685
Pb       3.81461     11.68571      4.05549        -0.096145      0.266749     -0.472612
Pb       3.88192     11.67104     16.47743         0.027422     -0.285670      0.719765
Pb      15.55951     11.67551      4.03939         0.063152     -0.135320     -0.358038
Pb      15.54499     11.84342     16.56876        -0.156338     -0.807711      0.036689
Pb       3.83792     11.67965      8.06620        -0.265385      0.645361      1.101404
Pb      15.59084     11.60720      8.29083         0.010461      0.053547      0.195018
Pb       4.01944     11.64533     12.28722        -0.361161      0.205149      0.248044
Pb       0.22374     11.57958     12.34468        -0.415218      0.231961      0.217036
Pb       7.82550      3.66958      4.20421         0.076723      0.568864     -0.662091
Pb       7.81726      3.99985      0.07132         0.327276      0.112327     -0.535990
Pb       7.72875     15.43169      4.01651        -0.109215      0.314511      0.453995
Pb       7.87946      0.18787      0.11383        -0.041608     -0.066499     -0.572323
Pb       7.56745      3.94254      8.37651         0.985113     -0.163900      0.568286
Pb       7.90445     15.54274      8.29641        -0.606546      0.325135      0.378658
Pb       7.67919      3.72145     12.43009         0.531839      0.185905     -0.110504
Pb       7.64048     15.54979     12.55715         0.131352      0.077461     -0.503193
Pb       7.72167      7.85112      4.16776         0.312882     -0.287762      0.228507
Pb       7.72381      7.97331     16.57313         0.255872     -0.723326      0.325351
Pb       7.83804      7.73336      8.23114        -0.229294      0.129511     -0.251936
Pb       7.79146      7.58019     12.40654        -0.165695      0.669215      0.211329
Pb       7.98683     11.72661      4.30360        -0.548220     -0.135452      0.069573
Pb       7.60209     11.72347     16.59440         0.687384      0.624183      0.149731
Pb       7.64316     11.75602      8.12615         0.824182     -0.328809      0.684449
Pb       7.69724     11.47501     12.39125         0.465424      0.981984      0.166087
Pb      11.86735      3.85634      4.41430        -0.667021      0.120869     -0.695762
Pb      11.81403      4.08919      0.19368        -0.283638     -0.363952     -0.345086
Pb      11.54624     15.43995      4.18594         0.333634      0.226586     -0.491868
Pb      11.57476     15.49279      0.05152        -0.555129      0.466611      0.097103
Pb      11.74507      4.16217      8.46756         0.194910     -0.953802     -0.321443
Pb      11.62786      0.16497      8.29293         0.969018      0.042757      0.233662
Pb      11.82845      3.81493     12.65805        -0.264394      0.144174     -0.488700
Pb      11.76372     15.56719     12.44220        -0.044078      0.374316     -0.706886
Pb      11.76604      7.56645      4.11102        -0.291987      0.271382      0.080099
Pb      11.44970      7.79466      0.02784         0.480554      0.376051      0.041736
Pb      11.56216      7.91772      8.30115         0.326848     -0.203026     -0.348112
Pb      11.43714      7.97619     12.70278         0.530806     -0.013883     -0.529659
Pb      11.72764     11.26914      4.27302         0.340587      0.421304     -0.479812
Pb      11.77315     11.77444     16.51281        -0.509591     -0.751525      0.041217
Pb      12.00566     11.97818      8.51667        -0.179415      0.082078     -0.234014
Pb      11.57164     11.91675     12.38524         0.103444     -0.827770      0.384510
Ti       1.83793      1.87374      2.10581         0.098376      0.458209      0.155909
Ti       1.99773      1.84390     14.87473        -0.908000      1.348947     -1.578071
Ti       1.90128     13.63755      2.12860        -0.666705     -1.170198      0.079043
Ti       1.96377     13.54287     14.73535        -0.552500      0.284639     -1.175884
Ti      13.47272      1.89354      2.08274         0.792964      0.483659      0.350892
Ti      13.41106      1.87592     14.84603         1.233231      1.532024     -0.322716
Ti      13.49964     13.52864      2.12917         0.286311      0.317363      1.335947
Ti      13.56540     13.72298     14.61409         0.876944     -1.435985      0.045576
Ti       1.86364      2.05452      6.13397         0.901417     -0.704823      1.628572
Ti       1.91582     13.76294      6.23082         0.572914     -0.550873     -0.741816
Ti      13.70666      1.84429      6.19097        -1.440663      0.465599      1.446431
Ti      13.66550     13.66356      6.21404         0.010120     -0.203634      0.719657
Ti       1.93712      1.91375     10.54034         0.077966     -0.298217     -1.225311
Ti       1.92564     13.58383     10.50232        -0.082942      0.322912      0.193211
Ti      13.62392      1.89580     10.46582         0.283881     -1.405457     -0.060841
Ti      13.81042     13.58069     10.66784        -0.400979      1.177967     -0.882482
Ti       2.01367      5.71739      2.17117        -0.526509      0.688311      1.160651
Ti       1.91730      5.73458     14.85812        -0.391876     -0.018543     -0.697152
Ti      13.77413      5.87230      2.18179        -0.559348     -0.881823      0.044500
Ti      13.60811      5.90667     14.59363        -0.029639     -0.252793      0.990514
Ti       1.94397      5.94210      6.27804        -0.067913     -0.928609     -0.115788
Ti      13.71242      5.76483      6.33892         0.507167      0.371128     -0.053572
Ti       2.21111      5.85391     10.31102        -2.378333     -0.227928      1.407902
Ti      13.78671      5.71523     10.59762         0.050396      1.122385      0.383118
Ti       1.86222      9.61106      2.05055         0.184713      1.078810      0.601319
Ti       1.87823      9.68419     14.61664         1.494130     -0.044513      0.315584
Ti      13.64803      9.63102      2.06498        -0.372724      0.693341     -0.340530
Ti      13.58640      9.78199     14.52092        -0.276464      0.318120      1.251428
Ti       1.90056      9.82782      6.35799        -0.902016     -0.796726      0.577900
Ti      13.62052      9.68433      6.42481         0.441835     -0.400542      0.036234
Ti       2.00733      9.60442     10.46839        -0.355924      0.592665     -0.316489
Ti      13.50756      9.69716     10.55917         1.027519     -0.164155      0.092301
Ti       5.79245      1.88367      2.14448         0.348172      1.073476     -0.747838
Ti       5.84803      2.03944     14.67822         0.546579     -0.284610     -0.234282
Ti       5.77584     13.71824      2.09289         0.016885     -1.615032     -0.273982
Ti       5.85819     13.75842     14.71655         0.635306     -0.344459     -0.424111
Ti       5.84706      2.00999      6.42079        -0.677350     -1.962703     -0.319222
Ti       5.83912     13.76641      6.39056        -0.974084      0.491453     -1.084204
Ti       5.79379      1.83547     10.46185         0.730591      0.112550      1.129514
Ti       5.88183     13.63124     10.39050         0.001488      0.407539     -0.623548
Ti       5.92955      5.87123      2.41638        -0.022454      0.284959     -0.868725
Ti       5.82985      5.98129     14.57234         1.145726     -1.418205     -0.580831
Ti       5.87616      5.81745      6.35174        -0.561738      0.586659      0.414982
Ti       5.93228      5.81233     10.47450        -0.080028     -0.089025     -0.341991
Ti       5.73527      9.80840      2.14014        -0.089768     -0.360579      0.004451
Ti       5.76542      9.76553     14.69091        -0.046831     -0.125359     -0.268598
Ti       5.78481      9.89608      6.30636         0.518505     -1.801322      0.367508
Ti       5.89104      9.70693     10.42544        -0.352250     -0.329478     -0.867745
Ti       9.70688      1.88279      2.27777         0.860937      1.385543     -1.773792
Ti       9.66562      1.98994     14.55161         0.229907      0.545378      1.497279
Ti       9.63606     13.57270      2.20458         1.328921     -0.538151     -1.542431
Ti       9.68788     13.71883     14.57645        -0.596627     -0.620165      0.751305
Ti       9.69621      1.84970      6.31319         1.549152      0.803465      0.863944
Ti       9.77374     13.62913      6.41945         0.359739     -0.943247      0.641331
Ti       9.74241      1.95558     10.46217        -0.293149      0.105907      0.208208
Ti       9.74082     13.66682     10.42002        -0.253117     -0.587123      0.858673
Ti       9.75978      5.82245      2.27679        -0.146111     -0.683913      0.381467
Ti       9.73437      5.88579     14.46406        -0.309050     -1.043021      0.170526
Ti       9.78409      5.64763      6.36561         0.009477      1.557679     -1.363253
Ti       9.82545      5.87586     10.37546         0.307649     -0.435713      1.746983
Ti       9.62287      9.71293      2.33491         1.724050     -0.325447     -1.715821
Ti       9.63221      9.81665     14.63674         1.164123     -0.124944     -0.498370
Ti       9.68990      9.67654      6.40783         0.333108      0.103207      0.846138
Ti       9.73212      9.76847     10.36423        -0.251855      0.360100      1.332394
O       1.96045      1.66770      0.29683        -0.094371      0.423145      0.415237
O       1.81778      2.13003     13.00011         0.338730     -0.541857      0.331390
O       1.74696     13.63874      0.31769         0.337096      0.079225     -0.259429
O       2.00416     13.69795     12.94819         0.351456     -0.528652      0.233233
O      13.37024      1.88345      0.27374         0.388608     -0.332146      0.818802
O      13.65943      1.75436     13.04855        -0.209497      0.283867     -1.115736
O      13.77734     13.38399      0.38372        -0.704633      0.842465     -0.992911
O      13.55908     13.74111     12.83585        -0.155443     -0.108719      0.083738
O       1.85548      1.88164      4.35622         0.196047      0.278486      0.290770
O       2.03057     13.55424      4.38719        -0.097886      0.302826      1.303978
O      13.66511      2.09493      4.42916         0.342935     -0.514221     -0.505405
O      13.51231     13.68390      4.45882         0.086808     -0.199768     -0.053303
O       1.86926      1.93736      8.67673         0.210459      0.113637      1.103601
O       1.73489     13.51582      8.76534         0.200987      0.586382     -0.921641
O      13.71381      1.91956      8.66716         0.116606      0.190249      0.637708
O      13.85382     13.59671      8.85730        -0.250326     -0.315377     -0.969328
O       2.14256      5.86895      0.40563        -0.045189      0.003458     -0.504119
O       1.74048      5.53116     13.12163         0.799270      0.545061     -0.539817
O      13.40628      5.97279      0.43184         0.488833      0.237019     -0.398260
O      13.77120      5.78256     12.81863        -0.210029     -0.377936     -0.222427
O       1.92528      5.67157      4.47228        -0.392376      0.613211      0.408294
O      13.82512      5.58643      4.53540        -0.475055      0.534370     -0.175129
O       2.19615      6.04054      8.56953        -0.178754     -0.565778     -0.402154
O      13.71853      5.61673      8.75491        -0.282920      0.357915      0.377423
O       1.94522      9.61649      0.28975         0.107664     -0.071245      0.338440
O       2.15268      9.70011     12.82150        -0.345583     -0.109075     -0.092998
O      13.78080      9.74426      0.28424        -0.299894     -0.343764      0.135872
O      13.63438      9.70746     12.73993         0.310378      0.044161     -0.374993
O       1.88316      9.75073      4.54952        -0.144864      0.220662     -0.069253
O      13.76388      9.68956      4.65350        -0.187246      0.214897     -0.776681
O       1.82925      9.67352      8.68167         0.714587     -0.128628      0.041303
O      13.55858      9.49322      8.68683        -0.003850      0.604773      0.835839
O       5.98763      1.98122      0.30205        -0.682965      0.102824      0.982904
O       6.01326      1.96088     12.80984        -0.537405      0.008199      0.894484
O       5.90069     13.67171      0.33030         0.055559      0.253008     -0.031554
O       5.88724     13.64578     12.91476        -0.429203      0.162264      0.120654
O       5.78686      1.87373      4.64011         0.386176      0.007649     -0.190076
O       5.76545     13.70861      4.55072         0.028166      0.004775     -0.185156
O       5.81411      1.77767      8.71014        -0.081984      0.471252     -0.396119
O       5.81609     13.82196      8.53699         0.356929     -0.979630      1.699761
O       5.93130      5.77015      0.61593        -0.324019     -0.353449     -0.765985
O       5.92685      5.78263     12.78801        -0.224960      0.240985     -0.406805
O       6.04023      5.61435      4.60841        -0.491365      0.082802     -1.119832
O       5.76583      5.75929      8.64269         0.212991      0.417306      0.473368
O       5.62644      9.61128      0.32048         1.164501      0.298460      0.872569
O       5.85409      9.73185     12.90105         0.074166      0.339901     -0.727166
O       5.82591      9.83625      4.54299         0.056113      0.083040     -0.605645
O       5.74958      9.69343      8.63652         0.299124      0.188760      0.522260
O       9.72273      1.97388      0.38079        -0.382749     -0.354588      1.357533
O       9.62093      1.74999     12.82392         0.352285      0.070933     -1.188414
O       9.75121     13.46145      0.41926        -0.516972      0.045947     -0.109305
O       9.84182     13.65623     12.80229        -0.098672      0.281270     -0.113231
O       9.82313      1.83059      4.54145        -0.662570     -0.830168     -0.546576
O       9.72430     13.83227      4.65698         0.084345     -0.276435     -0.983014
O       9.95393      1.97709      8.65785        -0.261966     -0.094469      0.352419
O       9.76766     13.47620      8.66118        -0.067644      0.199578     -1.044118
O       9.68069      5.82668      0.45323         0.204227      0.103151      0.114637
O       9.88498      6.19433     12.63952        -0.762683     -0.954040      0.882257
O       9.91920      6.05266      4.57825        -0.894620     -1.013452      0.536193
O       9.83953      5.73388      8.57886         0.048243     -0.208765     -0.337797
O       9.70382      9.68883      0.50284        -0.141039     -0.067261      0.068371
O       9.51484      9.49530     12.80732         0.861479      0.458196      0.870131
O       9.59183      9.77504      4.64364         0.137544     -0.567005     -1.488635
O       9.74457      9.76712      8.61362         0.113239      0.170498     -0.700576
O       3.89381      1.77426      2.36958         0.228674      0.172405     -0.158312
O       3.85685      1.69594     14.90372         1.052551      0.900738      0.109553
O       3.79570     13.74038      2.24483         1.200005     -0.162701      0.376421
O       3.96285     13.59895     15.08143        -1.174826      0.375361     -0.300012
O       0.00400      1.95759      2.28245         0.018136     -0.184856      0.185142
O      15.46580      1.89429     15.05109         1.090557     -0.293919      0.332842
O      15.54482     13.48810      2.48390         0.222406      0.378225      0.256651
O      15.52238     13.49069     14.84570         0.360444      0.819020      0.220984
O       3.85571      2.04174      6.70780        -0.114994      0.067130     -0.453992
O       3.86345     13.64973      6.69445        -0.716024     -0.359919     -0.263040
O       0.00190      1.85199      6.54386         0.638316      0.120280     -0.235985
O       0.01261     13.81546      6.32104         0.235523     -0.378910      0.464228
O       3.86934      2.00488     10.85509         1.214697     -0.650190     -0.046944
O       3.92774     13.64669     10.78092         0.171729     -0.134362      0.013929
O       0.12041      2.04340     10.88624        -1.057752     -0.430267     -0.107761
O       0.03794     13.59929     10.93819         1.007240     -0.334476      0.428847
O       3.93775      5.74874      2.67711         0.360844      0.361589     -0.377859
O       4.00253      5.97569     14.96645        -1.167442     -0.329204      0.025505
O       0.04213      5.76386      2.36494         0.219492     -0.161928     -0.104967
O      15.48167      5.65553     15.22014         0.611985      0.990873     -0.552903
O       3.88311      5.64277      6.53536         0.266705      0.313324     -0.020674
O       0.02960      5.85142      6.68092        -0.096250      0.240846      0.034222
O       4.03505      5.87003     10.92780        -0.220020     -0.145235     -0.395401
O       0.17157      5.85434     10.59662        -0.859734     -0.786169      0.210370
O       3.90017      9.57570      2.59464        -0.263775      0.721597     -0.443850
O       3.94152      9.54439     14.93596        -0.358151      0.462035     -0.079833
O      15.58080      9.77777      2.29994         0.966245     -0.147098      0.845125
O       0.09435      9.67728     14.65574        -1.731983      0.332565      0.247153
O       3.85167      9.83036      6.58148        -0.321127      0.084557     -0.116214
O      15.51597      9.66810      6.76940         1.552733     -0.101713     -0.413656
O       3.93732      9.73470     10.74954         0.863624     -0.170847      0.224289
O       0.13318      9.60122     10.85268        -0.566089      0.205923      0.048501
O       7.82038      1.81626      2.44553        -1.023198      0.351427      0.545820
O       7.77996      2.09468     14.92602        -0.951721     -0.295759      0.184416
O       7.76104     13.53666      2.40173        -0.794528      0.352505      0.675653
O       7.80671     13.52698     14.90086         0.247377     -0.401328      0.193468
O       7.87271      1.82216      6.80097        -0.568095      0.086193     -0.602932
O       7.75216     13.62869      6.57754         0.411753      0.705520      0.307628
O       7.84909      1.72156     10.70124        -0.133995      0.276777     -0.128540
O       7.74543     13.50765     10.73438         1.223159      0.671036     -0.179287
O       7.80844      5.60797      2.55492         0.116336      0.371766      0.457632
O       7.81612      5.86031     14.69170         0.711881      0.048659      0.711226
O       7.80538      5.87375      6.69704         0.272756     -0.596878      0.179623
O       7.83849      5.93120     10.61283         0.264681     -0.157582      0.161525
O       7.82529      9.73652      2.53679        -1.862482      0.205837     -0.127940
O       7.81293      9.82542     15.07439        -0.225274     -0.238267     -0.115702
O       7.66027      9.64961      6.74604         0.385075      0.116823     -0.387451
O       7.83608      9.77747     10.81928        -0.106913     -0.249470     -0.929118
O      11.67916      1.91366      2.43357        -0.259369     -0.623261      0.427556
O      11.57321      1.97966     14.91811        -0.714632     -0.789800     -0.349924
O      11.61334     13.71851      2.26650         0.732239      0.077880      0.602072
O      11.62936     13.61945     15.03495         0.205658      0.663754     -0.276240
O      11.75984      1.79451      6.49321         0.016569      0.098150     -0.009765
O      11.75599     13.60144      6.65019        -0.447192     -0.222344      0.086048
O      11.78107      1.77308     10.83862        -0.607436      0.705607      0.009533
O      11.80576     13.48974     10.71845        -0.679543      0.327534     -0.008581
O      11.67797      5.80006      2.52357         0.473756      0.414921      0.206060
O      11.65901      5.72892     14.80310         0.468189      0.787718     -0.052471
O      11.71251      5.63584      6.48826         0.876110      0.407320      0.735140
O      11.66432      5.55575     10.71438         0.727927      0.231497     -0.351469
O      11.73904      9.55950      2.33845        -0.430861      0.305706      1.156123
O      11.74372      9.66283     14.89129        -0.465726     -0.175459     -0.116224
O      11.64846      9.74293      6.48794        -0.236329      0.123995      0.480944
O      11.71800      9.72159     10.80209        -0.504019      0.176545     -0.187015
O       2.08031      3.85491      2.31318        -0.225200     -1.340114      0.089048
O       1.97460      3.89147     15.21459         0.526469     -1.017425      0.265638
O       1.87117     15.51279      2.46119        -0.301268      0.699488     -0.096268
O       1.90658     15.52725     14.94398        -0.257384     -0.191479      0.128087
O      13.64892      3.89552      2.14533        -0.196705     -0.433881      0.588173
O      13.47204      3.85749     15.07058         0.521354      0.450729     -0.336262
O      13.70768     15.56422      2.35957        -0.086374      0.050503      0.045783
O      13.49043     15.57958     15.03729         0.287133     -1.328700      0.278727
O       1.76695      3.92695      6.57359         0.396168     -1.212928      0.037709
O       2.06511      0.05033      6.60437        -0.493665     -0.422788     -0.427447
O      13.73265      3.82260      6.62755         0.109525     -0.220087      0.044615
O      13.72905     15.58120      6.61642        -0.235832     -0.493267     -0.364294
O       2.20395      3.92809     10.64073        -0.464040      0.339140      0.216212
O       2.00992     15.55680     10.77097        -0.110369      0.736818      0.233621
O      13.63990      3.72359     10.95793         0.345666      1.404111     -0.306591
O      13.77195     15.54602     10.74039         0.014273      0.792604      0.678360
O       1.92737      7.67465      2.47615        -0.002381      1.277764      0.336843
O       1.90880      7.77660     15.05009        -0.133984     -0.895141     -0.371186
O      13.82816      7.80746      2.54661        -0.252106     -0.775735      0.045019
O      13.76353      7.83751     14.75812        -0.018432     -1.153648      0.250196
O       2.07151      7.83549      6.40243         0.004638     -0.231851      0.117052
O      13.61012      7.69250      6.65232        -0.207469     -0.355367      0.026114
O       2.14087      7.71107     10.83928        -0.002588      0.077472     -0.139141
O      13.76125      7.67868     10.85710        -0.244875     -0.167493     -0.592219
O       1.96378     11.59440      2.37151         0.380343      0.120452      0.252231
O       1.95977     11.60307     15.00272         0.382229      0.652461     -0.296507
O      13.49533     11.64666      2.47467         0.267642     -0.376681      0.454234
O      13.54444     11.70407     14.86630         0.238113     -0.122953     -0.042627
O       1.82309     11.76261      6.69996         0.263165     -0.489179     -0.593590
O      13.75810     11.65774      6.66734        -0.337027      0.960063      0.039433
O       2.05167     11.65228     10.79671        -0.291412     -0.113617      0.229012
O      13.77607     11.60599     10.70333        -0.060117     -0.735157      0.248847
O       5.80442      3.72822      2.68441         0.375229     -0.003490     -0.974640
O       5.77790      3.99705     14.95938        -0.141913     -1.212902      0.097623
O       5.87674     15.58387      2.45953        -0.021076     -0.053669      0.026618
O       5.97508      0.01498     14.93213        -0.112607      0.231045     -0.105573
O       6.02001      3.79478      6.73717        -0.511280      0.924641     -0.314253
O       5.69381      0.01282      6.68559         0.625078      0.211410     -0.317933
O       6.02325      3.84945     10.64764        -0.273420     -0.116696      0.116877
O       5.97311     15.53203     10.79789        -0.992415      0.230811      0.190832
O       5.86734      7.78632      2.43880         0.538919     -0.250965      0.836464
O       6.05731      7.81086     14.84209        -0.295035      0.271009      0.432712
O       5.75566      7.71649      6.40299        -0.207477      0.038307      0.642587
O       6.00236      7.80701     10.72462        -0.860897     -0.055439     -0.023622
O       5.72110     11.72707      2.20093        -0.181569     -0.767530      0.652306
O       5.81503     11.66435     15.03496        -0.101669     -0.129591     -0.096127
O       5.81079     11.74107      6.61688        -0.014188      0.005888      0.033398
O       5.94342     11.72696     10.78641        -0.833479     -1.021218     -0.222886
O       9.78258      3.80372      2.62401        -0.395553      0.077090     -0.025693
O       9.71011      3.89672     14.66399        -0.036107      0.758039     -0.114591
O       9.63300     15.50046      2.37430         0.300604      0.417681      0.566598
O       9.48132     15.59235     15.02174         1.120513     -0.425391     -0.374039
O       9.85102      3.81216      6.30825        -0.796844     -0.458396      0.606079
O       9.84440     15.53868      6.80004        -0.626416     -0.064228     -0.410177
O       9.56065      3.81381     10.81902         0.734271      0.084114     -0.249434
O       9.93447     15.48404     10.63288        -0.473025      0.394446     -0.024688
O       9.66273      7.73295      2.61132        -0.030084      0.612787     -0.274288
O       9.91624      7.77497     14.90366        -0.978234      0.120857      0.186556
O       9.75011      7.75036      6.65857        -0.111174      0.576335      0.591790
O       9.94972      7.82572     10.45938        -0.476933     -0.578354      0.231102
O       9.75472     11.68900      2.78846         0.289427     -0.414626     -0.451918
O       9.91770     11.62022     14.73771        -0.562845      0.387055      0.235930
O       9.44749     11.64686      6.47648         0.625077      0.826054      0.197575
O       9.85753     11.68272     10.78162        -0.351068     -0.649605      0.140224
