  # total energy = -7883.24955174 
CRSYTAL
PRIMVEC
    15.6080000000000005    0.0000000000000000    0.0000000000000000
     0.0000000000000000   15.6080000000000005    0.0000000000000000
     0.0000000000000000    0.0000000000000000   16.6239999999999988
PRESSURE
-0.64234 -0.584643 -0.447196 -0.272642 0.390219 -0.001586
PRIMCOORD
320 1
Pb       3.90518      3.79611      4.10351         0.096573      0.348182      0.638856
Pb       3.82224      3.81490      0.05263         0.033475      0.441243     -0.455362
Pb       3.91230     15.56143      4.17271         0.099624      0.162173      0.352588
Pb       3.85933     15.52587      0.02323         0.499961      0.101575     -0.106343
Pb      15.46204      3.83424      4.11361         0.913311      0.061126      0.477684
Pb      15.56328      3.87290     16.55861         0.284748     -0.063737      0.310501
Pb       0.07338     15.60287      4.13879         0.017537     -0.211846     -0.268930
Pb       0.07929     15.57841      0.00228        -0.703011     -0.177157      0.012853
Pb       3.93661      3.93959      8.33828        -0.120442      0.118703     -0.520780
Pb       3.95064      0.16157      8.41930        -0.152876     -0.411995     -0.156592
Pb      15.59452      3.91783      8.23103         0.512014      0.153761     -0.050332
Pb       0.08982      0.02858      8.27684        -0.262153      0.175031      0.130393
Pb       3.77574      4.00863     12.51466         0.615567     -0.244666     -0.437756
Pb       3.81973     15.48057     12.38996         0.156216      0.690715      0.359253
Pb      15.55436      3.79246     12.31060         0.065071      0.452528      0.107529
Pb      15.57991     15.59393     12.42013         0.152460     -0.128261      0.347780
Pb       3.77762      7.80529      4.11911         0.254540      0.002241      0.211354
Pb       3.76949      7.75362     16.56367         0.493014     -0.340236      0.100886
Pb      15.59563      7.86119      4.01765        -0.028152     -0.153563      0.661188
Pb      15.60072      7.79849     16.60528        -0.080818     -0.101455      0.215863
Pb       4.00340      7.81454      8.28340        -0.219875     -0.330147     -0.436868
Pb      15.55309      7.81864      8.34675         0.402144     -0.166333     -0.609750
Pb       3.81433      7.85565     12.54654         0.044878     -0.029121     -0.072672
Pb      15.52345      7.74997     12.44159         0.103813     -0.110190      0.196049
Pb       3.93923     11.71409      4.16371        -0.161535     -0.785010      0.510482
Pb       3.87267     11.67638     16.51614         0.223499      0.007726      0.086024
Pb       0.01498     11.81964      4.13059         0.184469     -0.359172      0.367540
Pb       0.06159     11.79616      0.08949        -0.450801     -0.489066     -0.732243
Pb       3.87579     11.69725      8.28177        -0.113064      0.227087      0.162434
Pb      15.44594     11.70819      8.24404         0.284858     -0.180084      0.313677
Pb       3.78194     11.82600     12.48823         0.120596     -0.446951      0.091894
Pb      15.54280     11.54141     12.37674        -0.100436      0.207115      0.431779
Pb       7.71933      3.85169      4.08978         0.232209      0.181282      0.480334
Pb       7.60573      3.70826     16.59868         0.607788      0.420875     -0.076686
Pb       7.69689     15.57687      4.07216         0.736260     -0.292083      0.500271
Pb       7.75965     15.48150      0.03148         0.697786      0.030140     -0.289201
Pb       7.76427      3.91232      8.36711        -0.385492      0.049329     -0.769657
Pb       7.84217     15.53533      8.44258        -0.479726     -0.061993     -0.336200
Pb       7.78711      3.95988     12.50421        -0.496001      0.162528     -0.219414
Pb       7.89552      0.09148     12.52064        -0.084984      0.013261     -0.099321
Pb       7.64361      7.79271      3.97770         0.920195      0.125819      0.268693
Pb       7.84399      7.83784     16.53290         0.142134      0.185852      0.155060
Pb       7.88548      7.83197      8.40197        -0.122291     -0.075741     -0.625930
Pb       7.88507      7.73621     12.53131        -0.095251      0.217053      0.063392
Pb       7.74701     11.78066      4.04923         0.264618     -0.126826     -0.211895
Pb       7.78228     11.57548     16.57756         0.419799     -0.108038      0.023656
Pb       7.63354     11.66012      8.31992         0.267718      0.341482      0.545831
Pb       7.76005     11.61789     12.49930         0.022531     -0.072555      0.210226
Pb      11.71395      3.99894      4.25006        -0.216618     -0.157214     -0.529413
Pb      11.77019      3.88923     16.57003        -0.649528      0.375661      0.099573
Pb      11.74523      0.18763      4.21375        -0.373123     -0.705748     -0.399197
Pb      11.67902     15.56341     16.62229        -0.158991     -0.255509     -0.261109
Pb      11.64221      3.89890      8.28156         0.296654     -0.140582     -0.058533
Pb      11.49417     15.48408      8.20544         1.176408     -0.244616      1.050213
Pb      11.66331      3.81024     12.43742         0.217831      0.414400      0.043403
Pb      11.78691     15.50291     12.40713        -0.343062      0.002968      0.271531
Pb      11.76205      7.67583      3.99701        -0.524894      0.560443     -0.098688
Pb      11.65163      7.74611     16.59485        -0.017758      0.274591      0.069215
Pb      11.67153      7.84269      8.10057         0.086789      0.467545      0.181180
Pb      11.67707      7.73973     12.50298        -0.041557      0.023825      0.040492
Pb      11.62026     11.79094      4.30002         0.138680     -0.058200     -0.508896
Pb      11.88746     11.77002     16.59034        -0.308079     -0.387887      0.233852
Pb      11.71535     11.69008      8.26606         0.005968     -0.313183      0.097482
Pb      11.57561     11.63427     12.33217         0.533632     -0.074175      0.654810
Ti       1.99896      1.96894      2.26132        -0.146502     -0.818426      0.359716
Ti       1.90369      1.88782     14.78874         0.053490     -0.046620     -0.696111
Ti       2.12968     13.55914      2.21328        -1.603185      0.768299      0.987787
Ti       1.97160     13.65836     14.66007        -0.441609     -1.595492      0.007354
Ti      13.65918      1.90555      2.22472         0.258270     -0.122263     -0.398702
Ti      13.52233      1.96811     14.70633         1.595916     -0.867339      0.829115
Ti      13.72082     13.68040      2.25569        -0.437927     -0.162828     -0.100443
Ti      13.68029     13.68245     14.61267         0.512091     -0.394311     -0.151688
Ti       1.89972      1.95514      6.34496         0.556318      0.409175      0.008606
Ti       1.98027     13.64521      6.41873         0.056365     -0.425014      0.229645
Ti      13.57308      1.93597      6.34419         0.984996      0.245051      0.583774
Ti      13.66513     13.73397      6.33766         0.092257     -0.639559     -0.011917
Ti       1.96422      1.87481     10.56812         0.445742      1.069502     -0.678688
Ti       1.83701     13.56310     10.48686         0.892685      0.283304      0.052830
Ti      13.64544      1.86527     10.42564        -0.182462      0.314547     -1.361883
Ti      13.67149     13.60765     10.53546        -0.709921     -0.704852     -0.689048
Ti       1.94022      5.81454      2.21258        -0.271947     -0.245781     -0.888016
Ti       1.90434      5.75113     14.65520         0.940064      0.817298      1.433520
Ti      13.68362      5.79159      2.17679        -0.108395      0.846469     -0.569246
Ti      13.69073      5.85806     14.78180        -0.466250      0.941099     -0.562633
Ti       2.00847      5.84678      6.29368         0.197622      0.042742     -0.046142
Ti      13.71055      5.81114      6.25094         0.821500      0.440870     -0.153449
Ti       1.92862      5.87186     10.50082        -0.608880     -0.699571     -1.202758
Ti      13.56968      5.79003     10.42329         1.221749      0.169292      1.489097
Ti       1.88253      9.72809      2.23014         0.409777      0.434409     -0.190607
Ti       1.93511      9.73193     14.74763        -1.054036     -0.020770     -0.404778
Ti      13.58826      9.85504      2.29954         0.215754     -0.294691     -1.364627
Ti      13.71276      9.77597     14.67498        -0.079651     -0.619413      1.128161
Ti       1.95715      9.68048      6.41937        -0.611434      0.451030     -0.534167
Ti      13.66933      9.72686      6.31527        -0.267870      0.156454      0.290002
Ti       1.90337      9.71750     10.50802        -0.799717     -0.105224     -0.105956
Ti      13.53784      9.65710     10.57512         0.515095      0.663641     -0.543613
Ti       5.85160      1.85271      2.25472        -0.054026      0.362283      0.682469
Ti       5.80068      1.92336     14.63981         0.000293      0.014385     -0.836509
Ti       5.83016     13.62508      2.12832         0.966528     -0.638128     -0.402638
Ti       5.92679     13.65674     14.62575        -0.727641     -0.467567      1.350529
Ti       5.82349      1.86982      6.44790         0.300597      1.433123     -0.255593
Ti       5.83233     13.68209      6.49036         0.341492      0.149181     -0.462870
Ti       5.88031      2.05344     10.55941        -0.507079     -0.317503      0.483404
Ti       5.87320     13.70738     10.68652        -0.050092     -0.906811     -1.815107
Ti       5.80037      5.75777      2.14165         0.552687      0.343587      0.671388
Ti       5.88592      5.83795     14.67219        -0.614176     -0.095204     -0.622422
Ti       5.98952      5.92240      6.35298        -0.484028     -1.043583      0.603766
Ti       5.81852      5.94632     10.39374        -0.175058     -0.596833      1.304052
Ti       5.78930      9.71725      2.18526         0.447980      0.219588     -1.032792
Ti       5.81735      9.72445     14.76240         0.943486     -0.290181     -0.422243
Ti       5.84374      9.77514      6.39021        -0.000851     -0.820983     -1.394739
Ti       5.76345      9.79450     10.66944         0.182084      0.048070     -0.631085
Ti       9.77371      1.95087      2.28461        -0.397790     -0.617203     -1.370718
Ti       9.68497      1.96110     14.63722        -0.041746     -0.761136      0.584279
Ti       9.81685     13.65902      2.21232        -0.242981      0.061462     -1.069460
Ti       9.79723     13.59325     14.67303         0.062110      0.218509      0.791011
Ti       9.73566      1.89762      6.46928        -1.380715      0.425212     -0.655838
Ti       9.72668     13.53702      6.41000        -0.741719      0.255701     -0.500804
Ti       9.75399      1.97261     10.51443         0.047309     -0.739651      1.137145
Ti       9.70505     13.59084     10.65401         0.256461      0.469412     -0.555589
Ti       9.71814      5.78450      2.14866         0.098957      1.052906     -0.259249
Ti       9.73946      5.81049     14.69626         0.175568      0.545537     -0.019916
Ti       9.87524      5.79103      6.37192        -2.113514      0.641891      0.694633
Ti       9.72601      5.82804     10.50040         0.020762      0.609873      0.192929
Ti       9.80222      9.84763      2.18620        -0.855786     -1.011075     -1.451660
Ti       9.89987      9.75831     14.68083        -0.914844     -0.653804     -0.205301
Ti       9.63529      9.72212      6.25767         1.050525      0.186311      0.519055
Ti       9.61591      9.73224     10.48759         0.734982     -0.300947      1.766394
O       1.99925      1.96113      0.48234        -0.045894     -0.252070     -0.420499
O       1.87483      1.70684     13.00150         0.038993      0.501480      0.231518
O       2.17595     13.58792      0.46155        -0.409161     -0.287847     -0.246830
O       1.93794     13.66804     12.89816         0.062621      0.085970     -0.958213
O      13.68142      1.88266      0.43697        -0.292198      0.181169      0.205590
O      13.66076      1.98942     12.98343         0.226982     -0.036620     -1.176524
O      13.60198     13.65165      0.44637         0.134381     -0.001680      0.392152
O      13.62501     13.64083     12.80901         0.419271      0.120590      0.630362
O       2.03500      1.96387      4.55698        -0.114481     -0.387823      0.087973
O       1.92215     13.54361      4.62644         0.116129      0.739930      0.279462
O      13.59847      1.96391      4.53720         0.153760      0.025977     -0.285539
O      13.77108     13.60396      4.52472        -0.217313      0.314582      0.999009
O       1.88385      1.97461      8.75839         0.125821     -0.423332      0.590718
O       1.98422     13.62247      8.72127        -0.097255     -0.011372      0.153343
O      13.64074      1.78328      8.56175        -0.047288      0.654105      1.782412
O      13.59194     13.60211      8.74320        -0.117188      0.298103     -0.004884
O       1.91353      5.70363      0.37301         0.273274      0.144926      1.079709
O       2.14111      5.76383     12.92055        -0.563569      0.031048     -1.219141
O      13.70649      5.89200      0.34200        -0.077339     -0.675864      1.218110
O      13.71929      5.92945     13.03074        -0.356677     -0.530583     -0.836516
O       2.06537      6.01158      4.45633        -0.072576     -0.438494      0.697360
O      13.55834      5.78865      4.42630         0.180465     -0.001784      0.291584
O       1.82712      5.73253      8.64592         0.249200      0.496415      1.394656
O      13.75551      5.73820      8.69288        -0.470405      0.321108     -0.953188
O       1.89278      9.69338      0.43691         0.199628      0.334766      0.294382
O       1.76310      9.51931     12.98728         0.562852      0.701083     -0.166696
O      13.68390      9.90364      0.48794        -0.145970     -0.152078      0.709402
O      13.69378      9.70806     12.92129         0.229930      0.070711     -0.916231
O       1.99690      9.58661      4.61604         0.034866      0.121914     -0.012327
O      13.67084      9.73658      4.55738        -0.299490      0.261240     -0.220223
O       1.85878      9.76061      8.73366         0.318828     -0.410213     -0.282479
O      13.46660      9.72570      8.78181         0.541996     -0.626158     -0.137997
O       5.92950      1.92436      0.52030         0.027644      0.094402     -1.544914
O       5.91641      2.05728     12.86298        -0.097895     -0.358323      0.013329
O       5.73291     13.65993      0.34405         0.027912     -0.134742      0.492631
O       5.92167     13.53592     12.88402        -0.165449      0.042234     -1.095577
O       5.75146      1.86895      4.63660         0.145723     -0.219891      0.094350
O       5.86778     13.75903      4.66088         0.111764     -0.470645      0.427927
O       5.84142      1.92837      8.76968        -0.102872     -0.369953      0.043108
O       5.91369     13.51510      8.80191        -0.406907      0.428915      0.626045
O       5.97806      5.70313      0.40137        -0.220441     -0.165135      0.258314
O       5.88163      5.78800     12.84427        -0.046436      0.106064      0.307594
O       5.86087      5.85691      4.59045         0.142719     -0.081781     -0.654565
O       5.86677      5.96520      8.61098        -0.019871     -0.219662      0.643083
O       5.84034      9.65920      0.36531        -0.010939      0.383815      0.571062
O       5.75155      9.58781     12.96488         0.190354      0.304971     -0.641800
O       5.80135      9.69782      4.57901         0.369216      0.354612      0.176869
O       5.94210      9.80421      8.86876        -0.927681     -0.287537     -0.428544
O       9.66466      1.76972      0.46645         0.289020      0.342360      0.696256
O       9.65013      2.02872     12.86252         0.275414     -0.115894      0.087607
O       9.74818     13.68263      0.38515         0.502825      0.250702      0.178663
O       9.81410     13.57652     12.91590        -0.267501     -0.326956     -0.839209
O       9.73914      1.92941      4.69766         0.260009     -0.172585     -0.354213
O       9.68076     13.67207      4.62622        -0.023615     -0.661815      0.007558
O       9.74202      1.77212      8.76912         0.287109      0.241421     -0.931544
O       9.80032     13.62241      8.86867        -0.024953      0.407307     -0.329960
O       9.82838      5.85749      0.36372        -0.440248     -0.350938      0.099134
O       9.84049      5.82189     12.88608        -0.334637     -0.253443     -0.306476
O       9.88724      5.67028      4.63988        -0.070507      0.142933     -0.822313
O       9.74006      5.93072      8.73183         0.431499     -0.362315     -0.251462
O       9.84245      9.70412      0.31103        -0.124403     -0.041069      0.938540
O       9.81265      9.75860     12.85562        -0.357363     -0.124632     -0.168939
O       9.77670      9.86106      4.51902        -0.228789     -0.000086     -0.686492
O       9.67979      9.78015      8.77839         0.068616     -0.480850     -1.459525
O       3.95260      2.02125      2.53944        -0.400779     -0.486025     -0.069706
O       3.93991      1.96932     15.06926        -0.754090     -0.041941     -0.023447
O       3.95277     13.44827      2.67112         0.644194      0.630080     -0.613246
O       3.82891     13.43541     14.94827         1.092835      0.193365     -0.345629
O       0.07056      1.83903      2.59070        -0.260302     -0.137361     -0.115957
O       0.00121      1.81031     15.17899         0.306705      0.295538     -0.567273
O       0.04718     13.74296      2.43465         0.587763      0.059071      0.238061
O       0.02402     13.54242     14.94722        -0.595026      1.016123      0.609255
O       3.84131      1.87737      6.78075         0.333949      0.047450     -0.020828
O       3.88352     13.68099      6.76555         0.142004      0.000173     -0.154554
O      15.57740      1.96764      6.63818         0.125376     -0.191762     -0.242658
O      15.53837     13.73498      6.87476         0.347644     -0.535868     -1.007022
O       3.91490      2.00600     10.87537        -0.348603     -0.803063     -0.187305
O       3.91318     13.58955     10.96701        -0.411248     -0.072102     -0.423196
O      15.59059      1.75033     10.86398        -0.076191      0.714245     -0.162400
O      15.59452     13.70190     10.72729         0.050244      0.116342      0.292036
O       3.87682      5.75614      2.36608         0.829763      0.189215      0.184938
O       3.99003      5.72062     14.98598        -0.658512     -0.287383      0.307620
O       0.03806      5.94170      2.46777        -0.484860     -0.357830      0.190534
O       0.07455      5.90308     14.92037        -0.757417     -0.551365      0.274689
O       3.92847      5.85126      6.69877        -0.337729      0.396835     -0.040501
O      15.59775      5.81592      6.51254        -0.229507     -0.261428      0.119818
O       3.86242      5.63767     10.76956         0.446961      0.887619     -0.355728
O       0.00864      5.87161     10.79113        -0.228511     -0.384912      0.363739
O       3.92711      9.92730      2.43681        -0.100913     -0.663935      0.289257
O       3.85415      9.78028     14.98885         0.266821     -0.274139      0.168463
O      15.59947      9.79226      2.63703         0.399360     -0.171571     -0.430875
O       0.05134      9.54207     15.16256        -0.722095      0.916926     -0.744114
O       3.86671      9.66490      6.64035         0.644135     -0.149162      0.714715
O      15.59004      9.80090      6.68935        -0.409123     -0.465588      0.103608
O       3.73306      9.80097     10.97118         1.417341     -0.253527     -0.220647
O      15.56243      9.75572     10.87492        -0.060375     -0.858980     -0.240789
O       7.81396      1.85276      2.64242        -0.073120      0.234074     -0.213100
O       7.73241      1.73693     14.93558         0.722765      0.261759      0.321140
O       7.82679     13.63197      2.32238        -0.831379      0.283866      0.869115
O       7.78571     13.67488     14.99693         0.348750     -0.217492     -0.116253
O       7.74038      1.85469      6.70667         1.104205      0.230803      0.253495
O       7.74852     13.45817      6.80648         0.109285      0.925343     -0.391424
O       7.86181      1.89880     10.84133        -0.447256     -0.101040     -0.065906
O       7.79172     13.53037     10.87565         0.511420      0.577311      0.372272
O       7.80644      5.79479      2.57046        -0.458398     -0.235263     -0.189354
O       7.84567      5.86373     14.89838        -0.045083     -0.203794      0.192363
O       7.88509      5.73315      6.74910        -0.436497      0.351160     -0.358452
O       7.81192      5.85636     10.79441        -0.571894      0.025888     -0.064922
O       7.90192      9.70992      2.34247        -1.055298      0.001966      0.792996
O       7.80180      9.65322     14.92809        -0.501420      0.106234      0.285051
O       7.78860      9.66625      6.62837        -0.867610      0.737565      0.194894
O       7.72480      9.55709     10.83625         0.174250      0.683406      0.549857
O      11.73072      1.96090      2.49612        -0.092119     -0.018775      0.205632
O      11.69004      1.98565     14.90595        -0.889538     -0.261313      0.464310
O      11.67844     13.53329      2.56143         0.945167      0.461101      0.114650
O      11.78588     13.53989     14.97325        -0.799793      0.200329     -0.021280
O      11.67930      1.96994      6.63417        -0.358001     -0.298724      0.301113
O      11.70083     13.50050      6.60033         0.130224      0.685448      0.081599
O      11.74467      2.05536     10.85341        -0.203447     -0.382793     -0.307392
O      11.77406     13.58742     10.90000        -0.830725      0.108912     -0.134712
O      11.72361      5.73592      2.39175         0.692283     -0.224249      0.411663
O      11.68510      5.83374     15.02340         0.206163     -0.306316      0.116226
O      11.74388      5.79584      6.61211         0.075448      0.057031      0.535421
O      11.72125      5.75372     10.84570        -0.127255     -0.137293     -0.355834
O      11.65935      9.81406      2.48652         1.562900     -0.008470      0.579506
O      11.75569      9.69222     14.88229         0.565129      0.135761      0.317512
O      11.63648      9.72373      6.66496         0.366650     -0.048657     -0.100803
O      11.68488      9.77476     10.89304        -0.384924     -0.436267     -0.278202
O       1.92620      3.83993      2.54620        -0.058693      0.775338      0.001644
O       1.88684      3.80348     15.05306         0.176317     -0.116683     -0.399821
O       2.28818     15.54256      2.52690        -1.051863     -0.072263     -0.183704
O       2.04675     15.45372     15.17760        -0.421921      1.825498     -0.287407
O      13.87322      3.87750      2.48048        -0.741635      0.018559     -0.532884
O      13.63098      3.90280     14.98578         0.386265     -0.418635      0.451871
O      13.66663      0.01541      2.58592        -0.247144     -0.087204      0.077793
O      13.61257     15.56828     15.00121         0.068149      0.034541     -0.118422
O       1.97486      3.92973      6.58037        -0.169008     -0.493075      0.071103
O       1.91392      0.00504      6.66074        -0.118341     -0.137883      0.011084
O      13.63139      3.89618      6.46497        -0.198050     -0.156461      0.663082
O      13.58066      0.01590      6.49256        -0.097631     -0.723640      0.088812
O       1.93634      3.84434     10.81732        -0.688850     -0.362937      0.612994
O       1.97060     15.52944     10.86340         0.155068      0.300410     -0.307559
O      13.79909      3.84105     10.74656        -0.347571      0.024665      0.090939
O      13.58004      0.03116     10.89079         0.188241     -0.404849     -0.349652
O       1.98898      7.83807      2.46650         0.219274     -0.455081     -0.125613
O       2.05329      7.67883     15.03146         0.044054      0.234855     -0.056348
O      13.62510      7.86342      2.49524        -0.025250     -0.691775     -0.022618
O      13.66176      7.79643     15.05813        -0.056789      0.062572      0.119646
O       1.84921      7.75602      6.71310         0.240417      0.166693      0.294038
O      13.69136      7.73818      6.53971        -0.351640      0.386886      0.600542
O       1.87165      7.76895     10.87638         0.658264     -0.333643     -0.492376
O      13.63196      7.72323     10.93406        -0.205872      0.093219     -0.766990
O       1.95351     11.67734      2.66853        -0.171459      0.128525     -0.604944
O       1.79877     11.67639     14.96694         0.540099     -0.805686      0.273882
O      13.82975     11.79296      2.57763        -0.719569     -0.681690     -0.164220
O      13.74907     11.65044     15.00859         0.037333      0.378032     -0.058304
O       1.99614     11.67378      6.62738        -0.151734      0.341343      0.362028
O      13.62956     11.65042      6.71822         0.021193      0.338046     -0.351371
O       1.82744     11.64435     10.82647         0.340771      0.918486      0.263145
O      13.75273     11.63686     10.74490        -0.333683      0.614816      0.415845
O       5.82447      3.75538      2.61281         0.618644      1.738989     -0.386076
O       5.99617      3.86365     14.92698        -0.117369     -0.660828      0.388519
O       5.82328     15.53483      2.41927        -0.268198     -0.102992      0.532336
O       5.65414     15.50407     14.86708         0.395941      0.663790      0.244815
O       5.85206      3.86026      6.77953         0.018240     -0.027965     -0.121360
O       5.91067     15.59849      6.82438        -0.422616     -0.824850      0.079338
O       5.86901      3.89421     10.63996         0.510376      0.475588      0.351293
O       5.86152     15.55400     10.85656         0.011358      0.535995      0.136950
O       5.93529      7.80094      2.45802        -0.835131     -0.690123     -0.200005
O       5.81366      7.70538     15.07409        -0.104673      0.579429     -0.182236
O       5.90355      7.79003      6.63763        -0.169263      0.474427      0.429576
O       5.69398      7.78660     10.72936        -0.203926     -0.298461      0.296275
O       6.01725     11.69685      2.46620        -0.529601     -0.116236      0.138707
O       5.95492     11.65482     15.00510        -0.477358     -0.174385     -0.125137
O       5.75108     11.65168      6.69364         0.086416      0.135874     -0.014939
O       5.85314     11.69706     10.85604        -0.120827     -1.122799      0.764871
O       9.71046      3.86307      2.51115         0.095944     -0.670364      0.103195
O       9.72032      3.82347     14.94672        -0.134296     -0.072112      0.263645
O       9.78222     15.53278      2.64229         0.202492      1.012080     -0.151271
O       9.75498     15.49364     14.90193         0.424874      0.826023      0.121358
O       9.75901      3.85345      6.80203         0.281428     -0.254597      0.137426
O       9.70391     15.47402      6.83042        -0.146001      0.850647     -0.650745
O       9.70540      3.86845     10.73044         0.303042      0.152256      0.082347
O       9.81124     15.55307     11.03220        -0.184506      0.417236     -0.623143
O       9.83021      7.68778      2.47931         0.020386      0.082898      0.326025
O       9.72210      7.79306     14.88332         0.430618     -0.742341      0.293052
O       9.63857      7.83036      6.64022         0.819046     -0.937476      0.079472
O       9.71742      7.76520     10.81973         0.443934     -0.038456      0.117320
O       9.79132     11.69588      2.35351        -0.420581      0.419954      0.853416
O       9.72319     11.58026     14.93249        -0.069051      1.897302      0.218726
O       9.70558     11.70167      6.68834         0.187053     -0.899484     -0.045041
O       9.69860     11.68234     10.77203         0.034856     -0.651829      0.681152
