  # total energy = -7879.62245690 
CRSYTAL
PRIMVEC
    15.6080000000000005    0.0000000000000000    0.0000000000000000
     0.0000000000000000   15.6080000000000005    0.0000000000000000
     0.0000000000000000    0.0000000000000000   16.6239999999999988
PRESSURE
-0.52855 -0.343976 -0.529511 -0.029451 -0.084832 -0.076793
PRIMCOORD
320 1
Pb       3.76570      3.83212      4.10467        -0.091618     -0.137304      0.157026
Pb       3.74844      3.74951     16.61928        -0.305048     -0.249975      0.195101
Pb       3.93119     15.43406      4.30503        -0.336353      0.305669     -0.093139
Pb       3.98721     15.58477      0.09119        -0.586114      0.024151     -0.194837
Pb      15.55685      3.86263      4.14569        -0.251352      0.174361     -0.011735
Pb      15.56713      3.97120     16.58823         0.170892     -1.060596      0.194067
Pb       0.11337     15.60104      4.28373         0.077770      0.185329     -0.676300
Pb       0.00133     15.54196      0.02509         0.045308      0.509691     -0.027366
Pb       4.02227      4.05094      8.33083         0.050243     -0.129247     -0.349985
Pb       3.88287      0.07681      8.50195         0.103133     -0.776626     -0.313440
Pb       0.11487      3.94311      8.22584        -0.835162     -0.159970      0.750894
Pb       0.02954      0.09189      8.32984         0.012512     -0.528027      0.595031
Pb       3.95568      3.93589     12.29716        -0.733810      0.030327      1.276744
Pb       3.91868      0.09484     12.32037        -0.742969     -0.910377      0.252213
Pb      15.49851      3.75074     12.27569         0.251645      0.471221      0.263871
Pb      15.41615     15.58604     12.34172         1.463385     -0.458909     -0.147889
Pb       3.91702      7.67205      4.25465        -0.102431      0.702930     -0.248574
Pb       3.84087      7.82917      0.02682        -0.358942      0.541968     -0.301468
Pb      15.53059      7.76338      4.10187        -0.486308     -0.159873      0.493382
Pb       0.02547      7.79241      0.02714        -0.140549      0.054829     -0.241003
Pb       3.98821      7.86588      8.24916        -0.579635     -0.475664      0.190062
Pb       0.18537      7.86731      8.02885        -0.807750     -0.004055      0.873853
Pb       3.74758      7.83067     12.50422         0.356887     -0.068594     -0.218597
Pb       0.03311      7.74550     12.40122         0.236763     -0.041845     -0.594338
Pb       4.00342     11.61297      4.28497        -0.236992      0.089555     -0.174998
Pb       3.91545     11.63774     16.58405        -0.271539      0.005276     -0.568084
Pb       0.07015     11.72244      4.24405        -0.152149     -0.075540     -0.413856
Pb       0.04178     11.64885      0.01039        -0.141066      0.490379     -0.269237
Pb       3.88858     11.46276      8.28962         0.415533      1.459316      0.333690
Pb      15.52001     11.72667      8.39547         0.048593     -0.051281     -0.416554
Pb       3.78072     11.75755     12.62027         0.044401      0.236542     -0.614686
Pb      15.38364     11.68312     12.42073         0.629891      0.192356      0.146960
Pb       7.82820      4.07487      4.12318         0.125174     -0.834684      0.014620
Pb       7.69182      3.69367      0.10670         0.260779      0.145236     -0.496545
Pb       7.81747      0.04497      4.13911         0.517564     -0.431386      0.079589
Pb       7.80824     15.38649     16.56229         0.317782      0.524721      0.845627
Pb       7.83924      3.99462      8.09317         0.229534     -0.777407      0.695760
Pb       7.72012     15.55969      8.40571         0.605692     -0.194581      0.111500
Pb       7.76653      4.16642     12.45793         0.163794     -0.756720      0.992684
Pb       7.81058      0.11338     12.45946         0.326662     -0.483839     -0.792931
Pb       7.68559      7.76215      4.06624         0.117500      0.480646     -0.153821
Pb       7.92178      7.70102      0.00585        -0.338591      0.313185     -0.457337
Pb       7.71332      7.79035      8.42718         0.376718      0.047936     -0.494817
Pb       7.71381      7.94310     12.58024         0.122556     -0.630737      0.329400
Pb       7.74060     11.67633      4.13005         0.008183      0.148089     -0.043387
Pb       7.89846     11.49976      0.03364        -0.450269      0.351235      0.066319
Pb       7.67678     11.58509      8.43308         0.007798      0.575397     -0.385496
Pb       7.70106     11.73228     12.55869         0.001791      0.224010     -0.456542
Pb      11.56620      4.02662      4.01281         0.387888     -0.493713      0.175461
Pb      11.64778      3.68022     16.38501         0.388650      0.291195      1.123501
Pb      11.96420      0.20979      4.19943        -1.125715     -0.714525     -0.184917
Pb      11.76833     15.57221      0.04875        -0.331959     -0.374345      0.160687
Pb      11.71390      3.65686      8.07233        -0.407985      0.470243      1.422140
Pb      11.73992     15.38136      8.24580        -0.655420      0.931936      0.569001
Pb      11.55028      3.94472     12.39075         0.218259     -0.129120     -0.542681
Pb      11.87771      0.01655     12.55733        -0.613333     -0.378126     -0.994349
Pb      11.66802      7.94531      4.10991         0.577584     -0.288554     -0.258704
Pb      11.67591      7.73244     16.55263         0.152618      0.105475      0.360639
Pb      11.72375      7.76681      8.16804        -0.052267      0.462224      0.415825
Pb      11.91098      7.51026     12.40228        -0.903722      0.814672     -0.014229
Pb      11.50430     12.06249      4.13152         1.027044     -0.340767      0.240896
Pb      11.74442     11.77059      0.01838         0.143081      0.169076      0.523421
Pb      11.58049     11.50359      8.09562         0.247615      0.100363      0.316204
Pb      11.62001     11.54811     12.48753        -0.181971      0.190987     -0.231140
Ti       1.93734      1.93534      2.16268        -0.986591     -0.550634     -0.391764
Ti       1.97837      1.93899     14.45876        -1.109457      0.263960      0.804391
Ti       1.90841     13.64582      2.20709        -0.139518      0.279415      1.883953
Ti       1.89233     13.83468     14.62913         0.014865     -1.530944     -0.902121
Ti      13.67748      2.01640      2.17681        -0.171765     -0.030036     -0.274130
Ti      13.70671      1.83166     14.61113         1.286861      0.570788      0.697736
Ti      13.68604     13.71118      2.28665        -1.515346     -0.631003     -0.920026
Ti      13.61750     13.62798     14.74061         0.356536     -0.653884     -0.416372
Ti       2.12785      1.89085      6.44624        -0.650681     -0.182261     -0.292631
Ti       1.94907     13.64293      6.45586         1.161080     -0.171435      0.420673
Ti      13.75547      1.87907      6.45722        -0.737033      0.232331      0.295960
Ti      13.65752     13.61475      6.40429        -0.430840     -0.093126     -0.460711
Ti       1.95455      2.03531     10.43357        -1.240828     -1.289060      0.832816
Ti       1.84764     13.61931     10.46479         0.796075      0.902108      0.649088
Ti      13.59228      1.93780     10.46538         0.328251     -0.207369     -1.119900
Ti      13.57156     13.52587     10.41209        -0.226240      1.576685     -0.326969
Ti       1.94897      5.88977      2.26448        -1.434449     -0.814199     -0.577775
Ti       1.81599      5.84522     14.68326         0.838208     -0.248378     -0.713636
Ti      13.62791      5.84746      2.24732        -0.435821      0.060179      0.817416
Ti      13.59521      5.73982     14.68164         0.273149     -0.240871     -0.639573
Ti       1.90177      5.71759      6.38859         0.428251      1.573907     -0.331078
Ti      13.49397      5.79277      6.45297         1.648733      0.514939     -1.019260
Ti       1.97927      5.86825     10.47356        -0.783203      0.171002     -0.599015
Ti      13.69667      5.87041     10.41871        -0.194275     -1.186562     -0.878107
Ti       1.90030      9.72903      2.27425         0.972856      0.722967     -0.083474
Ti       1.83770      9.81266     14.64701         0.835077      0.177224      0.206810
Ti      13.75453      9.82169      2.12527        -1.869252     -0.100506      2.099300
Ti      13.61890      9.69083     14.69482        -0.585519      0.830069      0.270153
Ti       2.00455      9.83749      6.33684        -0.326103     -0.543502     -0.832127
Ti      13.70741      9.78375      6.19063        -0.430313     -0.514256      0.232219
Ti       2.00523      9.77271     10.47519        -0.326262     -0.060161      0.248375
Ti      13.65661      9.74928     10.45134        -0.414964     -0.658709     -0.978161
Ti       5.76746      1.93011      2.27907         0.301367     -0.258055     -0.784465
Ti       5.82598      1.85783     14.70812        -0.490372      0.929571     -0.286368
Ti       5.72258     13.70105      2.22493         0.701424     -1.083572      1.246763
Ti       5.79331     13.68099     14.65287        -0.376322     -1.556699      0.086823
Ti       5.92564      1.83164      6.34384        -0.285149      0.699761      1.208014
Ti       5.86746     13.65718      6.46418        -1.180021     -1.155991      0.321475
Ti       5.83569      1.95574     10.49692         0.300536     -0.734622     -0.490758
Ti       5.75627     13.59400     10.49503         0.595320     -0.178834     -0.770862
Ti       5.68316      5.75682      2.08759         0.867233      0.903527      2.589933
Ti       5.65094      5.74986     14.87245         1.632985      0.439027     -2.251310
Ti       5.86995      5.85167      6.23373        -0.903700     -0.191158      0.260749
Ti       5.84379      5.83738     10.63015        -0.888222      1.261978      0.277241
Ti       5.78538      9.73317      2.17369         0.203015      0.187313      0.007901
Ti       5.77948      9.63584     14.69498         0.025406      1.000115     -0.477089
Ti       5.93843      9.69934      6.38853        -0.448193      0.745449      0.642579
Ti       5.88480      9.69962     10.60100        -1.437241      0.604395      0.015589
Ti       9.66864      1.95804      2.22108         1.379076     -0.223172     -0.368767
Ti       9.71824      1.82267     14.70422         0.012267      0.496310      0.536407
Ti       9.60113     13.69953      2.21788         1.958936      0.070761     -0.966209
Ti       9.64955     13.59823     14.69955         1.082232      0.202189      0.278057
Ti       9.72764      1.97692      6.24111         0.447030     -0.695976      0.703089
Ti       9.63111     13.69193      6.50487         0.339956      0.748410     -1.062886
Ti       9.70581      1.89959     10.46349         0.439491     -0.241057     -0.149374
Ti       9.73334     13.52984     10.51929        -0.456504      1.306944     -0.261006
Ti       9.66688      5.90940      2.17148         1.349601     -0.561071      0.021788
Ti       9.69682      5.77091     14.77734        -0.901469      0.055159     -1.028263
Ti       9.71474      5.93193      6.31316         0.347652     -0.821326      0.559105
Ti       9.63924      5.82516     10.41829         1.800178     -0.207346      0.047884
Ti       9.77036      9.76391      2.27187         0.215084      0.022635     -0.711402
Ti       9.76918      9.78892     14.71567        -0.072872     -0.672888     -0.886298
Ti       9.64893      9.74239      6.28088         0.344220     -0.887180      1.364719
Ti       9.76973      9.58996     10.59560         0.943690      0.698381     -0.208316
O       1.99268      1.87109      0.35546        -0.077455      0.030230      0.901208
O       1.86759      1.91452     12.68679         0.273047      0.490669      0.537133
O       1.85722     13.83827      0.50580         0.127444     -0.167927     -1.676237
O       1.95462     13.61850     12.81798        -0.053831     -0.024779      1.211309
O      13.80884      2.04535      0.38312        -0.573371     -0.339226      0.434783
O      13.86393      1.68697     12.80349        -1.149222      0.439206      0.093864
O      13.63110     13.68693      0.43425         0.305318     -0.160431      0.712369
O      13.72830     13.77391     12.88314        -0.501119     -0.424343      0.575627
O       1.93626      1.95798      4.65854         0.168866      0.073099      0.202811
O       1.88317     13.65569      4.62724         0.366644      0.145739      0.101835
O      13.60776      1.79901      4.68220         0.706250      0.398327     -0.293473
O      13.47623     13.65594      4.59165         0.763442      0.196662     -0.037970
O       2.08706      1.94575      8.66500        -0.262885      0.031349     -0.919687
O       1.83192     13.71996      8.68322         0.050429     -0.490802      0.427487
O      13.51425      1.89017      8.64977         0.343184      0.187978     -0.067429
O      13.67493     13.47726      8.59052        -0.245934      0.215525      0.788696
O       1.84939      5.85247      0.44368         0.180020      0.627211      0.608066
O       1.85418      5.82278     12.88024        -0.314797      0.371019      0.800159
O      13.66449      5.74149      0.50757         0.031416      0.170332     -1.225042
O      13.77818      5.72995     12.89336        -0.609978      0.665168      0.036451
O       1.88715      5.71584      4.57482         0.228944      0.296674      0.135671
O      13.60998      5.77188      4.67556        -0.085285      0.182176     -0.389903
O       2.09283      5.92167      8.67315        -0.257282     -0.325152      0.084499
O      13.50072      5.78203      8.65735         0.631613      0.388794      0.465039
O       2.02682      9.72792      0.46263        -0.496451     -0.082938      0.314144
O       1.85415      9.67663     12.86404         0.095908      0.289590     -0.296741
O      13.71053      9.78519      0.38305         0.010590     -0.396627     -1.308180
O      13.38463      9.96058     12.91851         1.090333     -0.785538      0.195441
O       1.93080      9.83959      4.51943         0.299582      0.269324      0.603970
O      13.60385      9.83253      4.42975         0.209574     -0.429283      0.675455
O       1.94751      9.71126      8.68282         0.008195      0.412655     -0.130644
O      13.64114      9.72593      8.65571        -0.081554      0.339797      0.510285
O       5.77574      2.08945      0.45031        -0.230851     -0.773125      1.098252
O       5.70797      1.66301     12.92150         0.790726      0.779078      0.062684
O       5.78078     13.73719      0.49440        -0.029886     -0.287886     -0.862163
O       5.79998     13.65816     12.86681         0.075125      0.291995      0.414108
O       5.83547      1.98480      4.59797         0.060472     -0.269114     -0.958967
O       5.73405     13.76039      4.64157         0.159367     -0.259286     -0.188159
O       5.75294      1.90321      8.72295         0.378479      0.484887      0.193238
O       5.95254     13.61490      8.64033        -0.158269     -0.416906      1.301177
O       5.64541      5.83801      0.37681         0.151712      0.044851     -1.282830
O       5.80208      5.74329     12.94735        -0.050959     -0.053737      0.782662
O       5.79056      5.84309      4.42224         0.212753      0.006574      1.071861
O       5.77938      5.97917      8.86833         0.006952     -0.561481     -0.344131
O       5.63616      9.73663      0.36680         0.472764      0.355287      0.479894
O       5.76807      9.77033     12.85400         0.109041     -0.516380      0.389655
O       5.96972      9.62862      4.64879        -0.144622      0.342732     -1.371466
O       5.90213      9.67705      8.75009         0.096444     -0.066630      0.706578
O       9.79944      1.82122      0.43494        -0.272514      0.599282     -0.468883
O       9.72910      1.80051     12.95682        -0.095708      0.058616     -0.636690
O       9.71461     13.52095      0.36562        -0.386579      0.391820      1.081496
O       9.61891     13.56146     12.93233         0.338010      0.402502     -0.085138
O       9.61270      2.07028      4.47011         0.034263     -0.537487     -0.325643
O       9.59912     13.68963      4.67626         0.180453     -0.527767     -0.311436
O       9.69561      1.97236      8.71359        -0.040344     -0.027449      0.199980
O       9.74153     13.76796      8.70909        -0.174250     -0.769454     -0.339287
O       9.73896      5.91824      0.37228        -0.275770      0.218839     -0.189615
O       9.71974      5.75948     12.96443        -0.025079     -0.111491     -0.119222
O       9.69744      5.82648      4.53473        -0.292106      0.072871     -0.444080
O       9.73666      5.96580      8.66158        -0.596964     -0.458861      0.445164
O       9.50286      9.71525      0.41550         0.800754     -0.012614      0.047175
O       9.83428      9.90393     12.86219        -0.275754     -0.444627      0.967260
O       9.51422      9.67754      4.54698         0.187196     -0.091056     -1.098653
O       9.81945      9.63598      8.81229        -0.501052     -0.070120      0.221327
O       3.79031      1.82270      2.56760         1.708185      0.225371      0.025956
O       3.82327      1.77255     14.90952         0.581276      0.312263      0.178016
O       3.83932     13.89080      2.54977        -0.254813     -0.805301     -0.255142
O       3.86392     13.77749     15.12720        -0.124343      0.262061     -0.595601
O      15.58885      2.07940      2.53927         0.021108     -0.168984      0.114746
O       0.01316      1.99335     14.88674        -0.183941      0.223725      0.097510
O      15.51046     13.59319      2.58708         0.783329      0.160835      0.157386
O       0.00328     13.47084     15.00815         0.118901      0.441268      0.089620
O       3.97790      1.92446      6.73198         0.095972      0.577549     -0.468588
O       3.92014     13.53223      6.87485         0.108839      0.587116     -0.730142
O       0.03623      1.85806      6.76628        -0.220479      0.240495     -0.384195
O       0.05327     13.62753      6.68636        -0.821648     -0.166289     -0.265620
O       3.82736      1.87738     10.81897         1.117999      0.372131     -0.227712
O       3.88606     13.73516     10.85667        -0.391571     -0.442905     -0.490054
O      15.58598      2.06440     10.64553         0.216677     -0.487722     -0.086329
O      15.54977     13.37225     10.75395         0.010253      0.401659     -0.114758
O       3.82263      5.91441      2.62249         0.256418      0.181863     -0.614024
O       3.80900      6.06094     14.97940        -0.488519     -0.450979      0.009581
O      15.53519      5.78742      2.60225         0.817892      0.063183     -0.067028
O      15.53001      5.77070     15.06709         0.289319      0.413891     -0.185387
O       3.86181      5.79077      6.70745         0.772573      0.010779     -0.674926
O      15.56864      5.85200      6.79476         0.920730     -0.065336     -0.453568
O       3.80690      5.86340     11.00693         0.949781     -0.212069     -0.530204
O       0.02184      5.83884     10.65769        -0.579419     -0.046654      0.373117
O       3.84983      9.69140      2.57552         0.226107      0.273755      0.266332
O       3.85765      9.77943     14.92836        -0.124230     -0.695710      0.138194
O      15.59788      9.86228      2.51842         0.309678     -0.423392     -0.022948
O      15.52966      9.81181     15.03321         0.058313      0.129488     -0.372569
O       3.99208      9.81069      6.63422        -0.595246     -0.354253     -0.087913
O       0.03002      9.89630      6.45511         0.068679     -0.260126      0.515278
O       3.86417      9.59816     10.72414         0.102274      0.279476      0.407273
O      15.56271      9.79975     10.77149         0.002012      0.150984      0.345735
O       7.76044      1.96619      2.39677        -1.219095      0.204662      0.387061
O       7.79700      1.97705     15.04040        -0.364144     -0.094568     -0.212946
O       7.79230     13.49743      2.46598        -0.805367      0.439993      0.260316
O       7.75016     13.56433     15.01446        -0.315376      0.541078     -0.145322
O       7.83216      1.91043      6.67240        -1.059382      0.437896     -0.045860
O       7.76207     13.60518      6.71111         0.040834      0.092798      0.214418
O       7.67108      1.98580     10.83309         0.748848     -0.206432      0.140806
O       7.82254     13.49050     10.81989        -0.741259      0.454384      0.175472
O       7.80698      5.62774      2.46042        -1.613062      1.238037     -0.579361
O       7.68744      5.72753     15.01356         0.799472     -0.048191      0.447050
O       7.73748      5.84764      6.64888         0.244288      0.122049     -0.321109
O       7.74713      5.80080     10.86192         0.134130      0.289043     -0.337743
O       7.76711      9.83712      2.40842        -0.963660     -0.007655      0.392437
O       7.72024      9.86047     14.90933         0.653012     -0.362876      0.059100
O       7.76638      9.59192      6.85133         0.509313     -0.016809     -0.165281
O       7.76585      9.72454     10.96318         0.324852     -0.022427     -0.428396
O      11.67295      2.02199      2.45059         0.605557     -0.478307      0.362904
O      11.77558      1.76883     14.89419        -0.532077     -0.038131      0.056911
O      11.67394     13.70184      2.43919        -0.127821     -0.139866      0.495922
O      11.70750     13.66249     15.05883        -0.448261      0.316481     -0.417743
O      11.60252      1.85658      6.59630         0.585072     -0.180549     -0.164235
O      11.66069     13.72228      6.64856        -0.118285     -1.071177      0.069871
O      11.74985      1.99962     10.79686        -1.342112     -0.630991      0.625891
O      11.67850     13.77427     10.79335         0.678041     -0.154568      0.110854
O      11.61209      5.82186      2.46539         0.337253      0.482526      0.271508
O      11.70557      5.75174     15.01042         0.022752      0.718322     -0.112808
O      11.66614      5.81653      6.70741        -0.672855      0.500455     -0.443091
O      11.73171      5.80235     10.74115        -0.377032      0.372612      0.815596
O      11.67823      9.52518      2.44633        -0.929941      0.405593     -0.351233
O      11.66566      9.64142     15.14772        -0.584790      0.468116     -0.402386
O      11.60245      9.63972      6.56082         0.137891      0.222467     -0.046266
O      11.71397      9.63780     10.83773        -0.500744      0.126493      0.006120
O       2.01950      3.91062      2.35438         0.079438      0.102186      0.761678
O       2.04611      3.90367     15.04319        -0.502176      0.427744     -0.765746
O       1.75182      0.06525      2.57956        -0.038577     -0.720770      0.086349
O       1.69218      0.05529     14.78770         0.500148     -0.541619      0.306744
O      13.62103      3.88058      2.65799        -0.022946      0.216564     -0.214061
O      13.55715      3.77022     14.81650         0.182095      0.697978      0.312594
O      13.68948      0.02736      2.56457         0.089121      0.334098     -0.225310
O      13.73739     15.50692     15.13281        -0.126621      1.010285     -0.642798
O       1.88238      3.90935      6.66720         0.479891     -0.867667      0.168385
O       2.10897     15.58680      6.74880        -0.509618      0.249810     -0.480850
O      13.62686      3.85948      6.67955         0.362707     -0.625538     -0.105939
O      13.61317     15.52020      6.77547         0.591428      0.596575     -0.431936
O       1.92045      3.90217     10.62260         0.470874      0.453285      0.474733
O       1.78456     15.60759     10.73574         0.312087     -0.447911     -0.305905
O      13.66442      3.81917     10.81244        -0.155731      1.221513      0.114484
O      13.79082     15.56781     10.63960        -0.352787     -0.432473      0.264975
O       1.78569      7.82130      2.65125         0.483304     -0.562070     -0.607800
O       1.77394      7.91389     15.02789         0.131693     -1.442642     -0.065785
O      13.66484      7.81000      2.57906         0.283486     -0.771148     -0.227316
O      13.59939      7.78590     14.92654         0.278515     -0.572062      0.023896
O       2.09163      7.90254      6.65575        -0.531341     -0.474383     -0.486302
O      13.71965      7.85686      6.57164        -0.336064     -0.266675      0.076236
O       1.89691      7.76469     10.73432        -0.234622      0.506476      0.793109
O      13.67925      7.80700     10.82753         0.111115     -0.625262      0.184589
O       1.83631     11.74967      2.45081         0.672872      0.022272      0.146438
O       2.04604     11.70934     14.96812        -0.319193     -0.017847      0.190955
O      13.45969     11.60725      2.44132         0.385265      1.487974      0.009015
O      13.49450     11.70599     15.01268         0.451223     -0.233372     -0.001252
O       2.14338     11.71598      6.72365        -1.051148     -0.361893     -0.236444
O      13.59116     11.68289      6.55965        -0.002760     -0.013163      0.381978
O       2.09871     11.70077     10.74366        -0.361709     -0.644964      0.099081
O      13.56341     11.69158     10.65559        -0.234080     -0.679986      0.729060
O       5.64496      3.93851      2.46339         0.200324     -0.963514      0.027415
O       5.69833      3.85461     15.12433        -0.128762     -0.153380     -0.564745
O       5.90824     15.54762      2.54925        -0.060323      1.546513      0.033401
O       5.88637      0.06074     15.16064         0.068283     -1.165813     -0.334812
O       5.93802      3.97640      6.75172        -0.648055     -0.592621     -0.414351
O       5.82983     15.54485      6.74484         0.186454      1.444856     -0.414536
O       5.78240      3.89884     10.90793        -0.125051     -0.362737     -0.610787
O       5.78467     15.48257     10.58512         0.490877      1.826001      0.935555
O       5.78996      7.85360      2.49092         0.302539     -1.034625     -0.153145
O       5.91095      7.78856     15.05463        -0.344907     -0.001144     -0.217147
O       5.77694      7.76243      6.60305         0.136325     -0.827816      0.213523
O       5.72551      7.76787     10.92847         0.883895      0.049232      0.198622
O       5.74664     11.71219      2.69400        -0.229857     -0.020758     -0.592764
O       5.72025     11.74426     14.88979        -0.128533      0.499697      0.395608
O       5.92065     11.65096      6.62977         0.202943     -0.190289      0.096305
O       5.73714     11.67750     10.80086         0.225170     -0.845412      0.168524
O       9.71033      3.90117      2.41155        -0.108358      0.101062      0.260135
O       9.85900      3.86023     14.91117        -0.431147     -0.832915      0.380388
O       9.74816     15.57680      2.53835        -0.872647      0.075985     -0.079773
O       9.72941     15.55680     15.12116        -0.289486     -0.313534     -0.640676
O       9.84955      3.92343      6.52384        -1.150826     -0.272799      0.468936
O       9.63240     15.59755      6.65590         0.004349      0.050636     -0.111907
O       9.78056      3.91231     10.74647        -0.525732      0.145295      0.521023
O       9.62554      0.03152     10.76833        -0.104376      0.229560      0.495580
O       9.60116      7.82011      2.59719        -0.088902     -0.752130     -0.504970
O       9.63224      7.77281     14.88478         0.110767      0.352700      0.582988
O       9.63483      7.68937      6.71147         0.331817      1.494470     -0.308169
O       9.65281      7.71053     10.93207         0.045606      0.294905     -0.095463
O       9.86286     11.65489      2.56646        -0.789773      0.243236     -0.300014
O       9.74086     11.69560     14.96696         0.207832     -0.550981      0.302844
O       9.55989     11.54055      6.60479         0.546115      1.336622      0.548719
O       9.79304     11.73028     10.74222         0.228953     -1.565228      0.108681
