  # total energy = -7883.39740503 
CRSYTAL
PRIMVEC
    15.6080000000000005    0.0000000000000000    0.0000000000000000
     0.0000000000000000   15.6080000000000005    0.0000000000000000
     0.0000000000000000    0.0000000000000000   16.6239999999999988
PRESSURE
-0.788436 -0.720176 -0.26669 -0.102843 -0.055229 -0.02147
PRIMCOORD
320 1
Pb       3.91601      3.91048      4.13511        -0.260761     -0.449335      0.122928
Pb       3.93324      3.94089      0.01922        -0.381980     -0.332266     -0.303456
Pb       3.88299     15.59345      4.10196         0.133155      0.335751     -0.001474
Pb       3.85012     15.58576     16.59527         0.211773      0.036211      0.049788
Pb       0.00672      3.87005      4.11065         0.133328     -0.080544      0.500475
Pb      15.55882      3.86850     16.60928         0.053315      0.173026     -0.125942
Pb      15.56283     15.59384      4.07472         0.231300     -0.197309      0.876380
Pb      15.56631     15.57390     16.60248        -0.050912      0.428418     -0.233946
Pb       3.83545      3.87747      8.29823         0.092341     -0.228666      0.112094
Pb       3.88678      0.00335      8.30613         0.289909     -0.244504     -0.430385
Pb      15.57754      3.86482      8.27275         0.020302     -0.284899      0.323264
Pb       0.02732     15.58605      8.25639        -0.539579     -0.236189     -0.074988
Pb       3.89512      3.90101     12.41767        -0.170273      0.147701      0.022061
Pb       3.86792     15.55169     12.39000         0.117997     -0.418070      0.554700
Pb      15.58080      3.84833     12.44436         0.176942      0.189609     -0.376832
Pb      15.56666      0.06202     12.47526         0.179889     -0.255371      0.024886
Pb       3.86869      7.79912      4.18549        -0.136226     -0.116450     -0.006901
Pb       3.85824      7.77046     16.61751         0.304798      0.135181     -0.411966
Pb       0.04609      7.80553      4.14939        -0.129235      0.154361     -0.057768
Pb      15.60409      7.77725     16.61316        -0.067261     -0.463885      0.020852
Pb       3.94450      7.76215      8.20962         0.069455      0.327784      0.524002
Pb      15.54327      7.78584      8.33762         0.197852      0.062084      0.397770
Pb       3.89166      7.80878     12.45124        -0.121440      0.019692     -0.361519
Pb      15.60473      7.81035     12.47328        -0.573481      0.150310     -0.030652
Pb       3.87237     11.68201      4.11547         0.190383      0.203967     -0.115255
Pb       3.89301     11.65080     16.55146         0.141254      0.384026     -0.052201
Pb      15.58937     11.67329      4.11933         0.028445      0.280200     -0.029849
Pb      15.57990     11.71793     16.57500         0.178721      0.038030      0.385279
Pb       3.85909     11.67304      8.23488         0.449222     -0.112542      0.158902
Pb      15.57959     11.66422      8.29850        -0.160408      0.438288      0.070215
Pb       3.93336     11.68694     12.40966        -0.517587      0.036757      0.061212
Pb       0.03684     11.64586     12.39605        -0.212293     -0.057915      0.179452
Pb       7.81353      3.85639      4.14611        -0.407059     -0.088676      0.115904
Pb       7.81548      3.91742      0.01978        -0.082014      0.004765     -0.435088
Pb       7.80197     15.55168      4.08543        -0.413553      0.349040      0.399106
Pb       7.82221      0.03856     16.62331        -0.044458     -0.385075      0.123611
Pb       7.72689      3.91090      8.28583         0.806299     -0.040596      0.158561
Pb       7.79517     15.56792      8.30506         0.376882     -0.039487     -0.277349
Pb       7.76147      3.86672     12.43161        -0.241794      0.218745     -0.450781
Pb       7.76097     15.58368     12.46086         0.009520     -0.361007      0.155156
Pb       7.76970      7.80412      4.14034        -0.171781      0.100773      0.031230
Pb       7.82507      7.84492     16.60482        -0.553915      0.127549     -0.316071
Pb       7.79091      7.77833      8.27312        -0.533308     -0.000500     -0.008352
Pb       7.83595      7.73031     12.38300        -1.283504     -0.246664      0.933659
Pb       7.85031     11.68381      4.18324        -0.671336     -0.273982     -0.249642
Pb       7.76537     11.67813     16.62233        -0.260813     -0.125007     -0.221445
Pb       7.73590     11.70754      8.22711         0.017740      0.080737      0.391128
Pb       7.76483     11.62843     12.42666         0.001122      0.549184      0.242479
Pb      11.70305      3.91139      4.16238        -0.051467     -0.393448      0.862615
Pb      11.71714      3.94597      0.00549         0.018935     -0.380419     -0.553636
Pb      11.61861     15.56988      4.11624         0.537840     -0.163323      0.479440
Pb      11.64909     15.57702      0.00692         0.168480      0.046471     -0.002507
Pb      11.73184      3.91924      8.28344        -1.199903     -0.004481      0.710957
Pb      11.68600      0.02465      8.25839        -0.587601     -0.293502      0.250197
Pb      11.75069      3.86660     12.47337        -0.405964      0.177065      0.001946
Pb      11.76042     15.57501     12.43746        -0.469853     -0.215830     -0.213545
Pb      11.68904      7.68508      4.09200         0.345122      0.890872      0.226094
Pb      11.59396      7.78072     16.60046         0.095714     -0.042879      0.055190
Pb      11.65463      7.83892      8.24058         0.075640     -0.239581      0.685263
Pb      11.65015      7.79136     12.48907         0.696015      0.104429     -0.023050
Pb      11.64396     11.59905      4.16620         0.481977     -0.053786     -0.127306
Pb      11.72500     11.71601     16.57919        -0.602954     -0.116388      0.180278
Pb      11.79400     11.74630      8.30290        -0.311575      0.120820      0.027966
Pb      11.67429     11.73259     12.43840         0.044926      0.120103     -0.640531
Ti       1.94341      2.01192      2.19337         0.155706     -0.519680     -0.435869
Ti       1.92069      1.99490     14.68152         0.598452     -0.552515      0.632056
Ti       1.87849     13.70947      2.19653         0.805278     -0.496165      0.503357
Ti       1.83899     13.64327     14.76302         1.353261      0.281031     -1.807439
Ti      13.62872      1.91700      2.28770         0.467198     -0.537127     -0.211877
Ti      13.66807      1.87571     14.61066        -0.568426      0.564405      0.898394
Ti      13.68287     13.61756      2.19579        -0.776644      0.452768      0.249394
Ti      13.60381     13.58674     14.65219         0.384137      0.886451     -0.718701
Ti       1.89812      1.82685      6.34284         0.068643      0.818966     -0.500232
Ti       1.98008     13.62601      6.42828        -1.120268     -0.403490     -0.846958
Ti      13.53987      1.99799      6.42822         0.653473     -1.251201      0.110279
Ti      13.58742     13.68939      6.39790         0.635300     -0.150325      0.456033
Ti       2.01145      1.82513     10.53268        -0.867754      1.330405     -0.152544
Ti       1.88331     13.58512     10.52347         0.595839     -0.088211      0.311666
Ti      13.57414      1.94294     10.44188         0.526649      0.271893      0.069633
Ti      13.65397     13.67049     10.55122        -0.459034     -0.349989     -0.470800
Ti       1.86278      5.88212      2.18396         0.270195     -0.659855     -0.412274
Ti       1.95527      5.86162     14.59975        -0.234453     -0.311867      0.450965
Ti      13.55047      5.74403      2.33578         1.450036      1.155099     -1.236568
Ti      13.68632      5.84495     14.71299        -0.041106     -0.475963     -1.557095
Ti       1.93805      5.78473      6.46144        -0.017660      0.385779     -1.144083
Ti      13.67158      5.85885      6.48364        -1.076169     -0.169230     -1.357930
Ti       1.75331      5.91990     10.55131         0.906101     -0.902788      0.972346
Ti      13.52186      5.87462     10.65447         0.355229      0.495504      0.674825
Ti       1.97973      9.76755      2.20661        -0.431917      0.161222     -0.639491
Ti       1.86179      9.72858     14.75176         1.240137      0.188798     -1.158324
Ti      13.62801      9.74198      2.06031         0.046954     -0.240974      2.201573
Ti      13.65113      9.73815     14.78326        -0.373603     -0.485223     -1.842961
Ti       1.91678      9.70245      6.40343         0.363568     -0.158175      0.060855
Ti      13.71678      9.68256      6.40341        -1.236153      0.928241     -0.001528
Ti       1.92051      9.72476     10.49118         0.394344     -0.053290      0.643107
Ti      13.64766      9.77135     10.42642        -0.116042     -0.674090      0.613648
Ti       5.84365      1.95110      2.23205        -0.248495     -0.371383      0.282997
Ti       5.77593      1.84516     14.76364        -0.318884      0.398689      0.335846
Ti       5.81253     13.62470      2.25120        -0.418540     -0.110585     -0.958085
Ti       5.83677     13.61612     14.61696        -0.352800     -0.051447      1.076442
Ti       5.81859      1.95293      6.38960         0.525567     -0.997883     -1.188083
Ti       5.87362     13.67547      6.33624         0.013688      0.029772      0.822524
Ti       5.83549      1.86415     10.48305        -0.191597      0.718401     -0.099552
Ti       5.83485     13.61240     10.42460         0.059325      0.125824     -0.970330
Ti       5.70363      5.85974      2.20473         0.790472     -0.633314      0.058435
Ti       5.83385      5.79830     14.67447        -0.466943      0.579187     -0.196468
Ti       5.83349      5.73882      6.36263         0.398770      1.270777      1.398178
Ti       5.70312      5.85104     10.45842         0.345452     -0.275207      0.031109
Ti       5.80673      9.67860      2.15212         0.648041      1.009392      0.298104
Ti       5.80499      9.75904     14.62535         0.094606     -0.447286      1.116096
Ti       5.83862      9.74510      6.30424        -0.079993     -0.602001      0.962995
Ti       5.86108      9.77239     10.53296        -1.054785     -0.727247     -1.275477
Ti       9.77624      1.96342      2.25921        -0.480310     -1.078978     -0.599978
Ti       9.72461      1.86142     14.70144         0.632315      0.717601      0.497860
Ti       9.73220     13.59394      2.22674         0.277047      0.337158     -0.752863
Ti       9.70605     13.58643     14.70897         0.002651      0.448237     -1.129550
Ti       9.66837      1.91031      6.44140         0.270832      0.297648      1.806249
Ti       9.68677     13.61755      6.30891         0.747281      0.805603      1.890275
Ti       9.67117      1.91864     10.61302         1.054605      0.011494     -2.368363
Ti       9.62616     13.66534     10.58027         1.099908     -0.346211     -0.434184
Ti       9.64258      5.78911      2.20329         0.034333      0.564057      0.039097
Ti       9.75640      5.85337     14.70818         0.095052     -0.768317      0.006680
Ti       9.71262      5.91211      6.33442        -0.038897     -1.842638      0.943659
Ti       9.71119      5.90080     10.53711        -0.023533     -1.281458      0.413274
Ti       9.67948      9.64798      2.24555         0.726715      1.008919     -0.638289
Ti       9.70368      9.75989     14.63193        -0.053594     -0.368564      1.319265
Ti       9.71975      9.74229      6.44878         0.263697      0.068514     -0.828726
Ti       9.67566      9.70006     10.63301         0.901836      1.125588     -1.118211
O       1.87313      2.08980      0.38823         0.257317     -0.342828      0.881232
O       1.81718      1.80660     12.93921         0.567604      0.267094     -1.486798
O       2.00626     13.68719      0.43413        -0.326393     -0.274628     -0.832724
O       1.94162     13.64977     12.91933        -0.073914     -0.093006      0.589837
O      13.58681      1.87724      0.52859         0.201701      0.063907     -0.281572
O      13.51219      1.89262     12.83654         0.421687      0.382414      0.414896
O      13.65270     13.73353      0.41546         0.259797     -0.149358     -0.254905
O      13.72585     13.61499     12.83627        -0.466060     -0.132707      0.785758
O       2.04275      1.93655      4.56768        -0.394463     -0.295383      0.149990
O       1.72174     13.53827      4.63153         0.737620      0.108788      0.795017
O      13.58927      2.15167      4.67241         0.163283     -0.343186     -0.781333
O      13.75144     13.69889      4.64096        -0.181349     -0.501022     -0.137282
O       2.02949      1.88686      8.73795        -0.245182      0.035350      0.324580
O       1.98995     13.61869      8.77550         0.091290      0.071178     -0.705537
O      13.70706      1.98058      8.62791        -0.208842     -0.307631      1.318391
O      13.57325     13.60052      8.75698         0.057166      0.339586      0.601318
O       1.87088      5.72242      0.36403        -0.011373      0.407003      1.282785
O       2.00242      5.90811     12.83113        -0.176388      0.026792      0.299070
O      13.76924      5.76401      0.55034        -0.429129     -0.086868      0.030068
O      13.58848      5.91334     12.84583        -0.096849     -0.325836      1.429048
O       1.98410      5.91575      4.67814        -0.127109     -0.357500      0.281595
O      13.56811      5.82419      4.65452         0.001014      0.088667      0.163354
O       1.71499      5.93186      8.78158         0.372882     -0.440305     -1.207869
O      13.60386      5.80766      8.93473         0.175552      0.028307     -2.891300
O       2.07790      9.66985      0.40444        -0.614856      0.231037      0.793970
O       1.98550      9.88405     12.94550        -0.308074     -0.453056      0.422060
O      13.89004      9.79836      0.32084        -1.246469     -0.154846     -0.120724
O      13.78841      9.79642     12.97718        -0.455794     -0.198035      1.019175
O       1.92520      9.60415      4.60553        -0.044560      0.384189     -0.224628
O      13.50939      9.64079      4.64110         0.525811      0.352992     -0.176380
O       1.84120      9.72642      8.74983         0.321799     -0.371595     -0.856479
O      13.70549      9.72336      8.63518        -0.377427      0.047621      0.588766
O       5.74255      1.81880      0.45792         0.591031      0.215594     -0.385299
O       5.84115      1.91696     13.02787         0.069506     -0.085090     -1.111052
O       5.69934     13.59480      0.42574         0.416597     -0.154645      1.225894
O       5.87956     13.72897     12.88007        -0.023282     -0.268305     -1.123010
O       5.92290      1.84662      4.57579        -0.372618      0.540301      0.518466
O       5.95198     13.54534      4.57717        -0.202381      0.264833     -0.830343
O       5.83169      1.87300      8.69661        -0.127998      0.200105      0.336821
O       6.00201     13.65104      8.54425        -0.595545     -0.323039      1.965058
O       5.66654      5.84064      0.44090         0.254562     -0.048339     -0.157034
O       5.68176      5.78943     12.86881         0.451708      0.078790      0.859266
O       5.76345      5.73766      4.62993         0.249908      0.401641     -1.500038
O       5.83085      5.62670      8.64504        -0.163920      0.620320      1.409218
O       5.91344      9.83780      0.36304        -0.378657     -0.144478      0.894951
O       5.77021      9.81026     12.84280        -0.034614     -0.291569      0.136113
O       5.98017      9.59362      4.55918        -0.670355      0.038623     -0.560872
O       5.85176      9.79322      8.72169         0.227653     -0.088248      0.654096
O       9.74598      1.64097      0.47076         0.038020      1.086617      1.018186
O       9.75951      1.86430     12.91685        -0.147559      0.242777     -0.035803
O       9.76838     13.65897      0.38443         0.144687     -0.224331      1.098272
O       9.76063     13.63973     12.87089        -0.053284     -0.234493      1.307059
O       9.76616      2.07711      4.73662        -0.058719      0.090253     -2.603714
O       9.69119     13.59924      4.57189         0.107512      0.018299     -1.451673
O       9.80610      1.82023      8.74324        -0.682202      0.044750      1.826618
O       9.64766     13.78169      8.81243         0.105556     -0.393302     -0.065277
O       9.76594      5.83133      0.43526        -0.084678      0.099387     -0.270883
O       9.89216      5.83407     12.93535        -0.718535     -0.070328      0.658500
O       9.58518      5.78873      4.55336         0.779226      0.114837     -0.092101
O       9.71410      5.92080      8.79951        -0.104489      0.248392     -0.420071
O       9.78267      9.75311      0.46160        -0.354638     -0.029665      0.461668
O       9.62739      9.64545     12.88389         0.460549      0.418421     -0.559956
O       9.67158      9.66974      4.63226         0.295547      0.464083      0.298138
O       9.65249      9.65436      8.83519        -0.142689     -0.233488     -0.154039
O       3.95955      2.01011      2.53693        -1.115908     -0.308014      0.087986
O       3.86256      1.89902     15.04195         0.189461      0.191780      0.021189
O       3.79677     13.57559      2.66324         0.659829      0.073339     -0.083699
O       3.98892     13.40963     14.83286        -1.078794      0.175246      0.571102
O      15.59729      1.85550      2.55734         0.458090      0.797883     -0.005297
O       0.03269      1.90492     14.96538        -0.966087     -0.060129      0.203653
O      15.59096     13.56747      2.59081         0.328963      0.572384     -0.518469
O      15.55939     13.72338     15.00644         0.407108     -0.530406      0.236726
O       3.93898      1.85744      6.63150        -0.588211      0.359161      0.440094
O       3.91795     13.64976      6.67308        -0.080588     -0.282982     -0.144769
O      15.57118      1.73621      6.65105         0.612108      0.961114     -0.084880
O       0.04181     13.60746      6.91060        -0.147093      0.098102     -0.638169
O       3.90316      1.95722     10.79954        -0.371001     -0.267292      0.350830
O       3.94442     13.63960     10.70445        -0.050034     -0.175494      0.456014
O      15.55240      2.05037     10.90150         0.411479     -0.321930     -0.468995
O       0.03153     13.62622     10.81476        -0.375940      0.289776     -0.058403
O       3.84025      5.77788      2.61445         0.186227      0.246127     -0.395481
O       3.83023      6.02449     15.01086         0.537523     -0.668375     -0.164640
O      15.59281      5.92526      2.65633         0.208780     -0.370067     -0.215603
O      15.59587      5.84986     14.91254         0.139727     -0.015867      0.257383
O       3.93791      5.77796      6.74505        -1.729401     -0.080728      0.047276
O      15.51710      5.67443      6.63585         0.560103      0.298566      0.396058
O       3.84330      5.93424     10.73481         0.555556     -0.269807     -0.063426
O      15.47891      5.86894     10.88029         0.958963     -0.175118      0.350219
O       3.92263      9.69572      2.58922        -0.700328     -0.050280     -0.143249
O       3.87795      9.70538     15.01164         0.223208      0.455009     -0.165147
O      15.60118      9.69803      2.49548        -0.024433     -0.150747      0.018166
O      15.60225      9.73927     15.07815        -0.539250     -0.110537     -0.163634
O       3.86632      9.68768      6.67972        -0.377971     -0.161281     -0.064677
O      15.57675      9.69826      6.72962         0.459494      0.341553     -0.456912
O       3.89364      9.68423     10.76353        -0.232285      0.277906      0.291861
O      15.59429      9.67086     10.78622        -0.125006      0.344436      0.274758
O       7.77128      1.89784      2.64521         1.075766     -0.028361     -0.680699
O       7.80619      1.85385     15.08897        -0.140038      0.161426     -0.122494
O       7.77486     13.70315      2.43492         0.125540     -0.248401      0.105743
O       7.84336     13.60132     14.94114         0.068270      0.483366      0.384205
O       7.79961      1.95434      6.69948        -0.795258      0.217269      0.245430
O       7.86450     13.66946      6.69535        -1.427125     -0.718313     -0.304852
O       7.73516      1.83971     10.90327         0.392271      0.405130     -0.076738
O       7.75781     13.55931     10.84794        -0.600142      0.560795      0.145586
O       7.79639      5.86519      2.55671        -0.347999     -0.114424     -0.486641
O       7.76519      5.87174     15.05738        -0.337974     -0.390744     -0.337739
O       7.77284      5.79205      6.72760         0.274276      0.324208     -0.238269
O       7.79324      5.83443     10.90196        -0.707508     -0.298935      0.069896
O       7.75535      9.70228      2.51155         0.589376      0.011763      0.010653
O       7.83964      9.74104     15.04894        -0.198956     -0.127190     -0.181166
O       7.72390      9.61868      6.59771         1.355246      0.405934      0.649681
O       7.72505      9.71501     10.99056         0.552711     -0.115299     -0.509772
O      11.71929      2.02938      2.71535        -0.610717     -0.352386     -0.700313
O      11.70852      2.03746     15.05935         0.125278     -0.352411     -0.272621
O      11.75711     13.78084      2.50319        -0.866417     -0.677543      0.131448
O      11.74364     13.60832     15.02219        -0.128165      0.059976     -0.206182
O      11.65946      1.84953      6.73052         0.444179      0.072703     -0.090334
O      11.62779     13.66342      6.68307         0.565831     -0.030188     -0.059244
O      11.71184      1.82959     10.72591        -0.417156      0.083590      0.468486
O      11.66833     13.64421     10.87772         0.717737     -0.314193      0.099931
O      11.69077      5.79811      2.56165        -0.493223     -0.333834     -0.041316
O      11.75209      5.71378     15.00222        -0.815087      0.155866      0.458520
O      11.65548      5.92801      6.79742         0.276985     -0.310631     -0.534416
O      11.61315      6.05018     10.91208        -0.309105     -0.662042     -0.090690
O      11.65010      9.93047      2.54419         0.533424     -0.612015     -0.434095
O      11.62592      9.66335     15.07349         1.154707      0.369806     -0.208802
O      11.68323      9.64925      6.73387        -0.760732      0.487904     -0.116165
O      11.71654      9.79949     10.86674        -0.542945     -0.177397      0.016059
O       2.00425      3.86413      2.62811        -0.721667      0.698363     -0.293463
O       2.04565      3.86719     14.84213        -0.352347      0.939174      0.082537
O       1.98631      0.00343      2.40939        -0.137693      0.146441      0.411267
O       1.98903     15.55664     14.99597        -0.058713     -0.404429      0.419412
O      13.75902      3.86489      2.58103        -0.432661      0.355657     -0.038795
O      13.82664      3.86602     15.03968        -0.873879     -0.227449     -0.332225
O      13.74974     15.58194      2.64585        -0.687637      0.519558     -0.321731
O      13.73308     15.60086     14.87685        -0.469124      0.019065      0.297775
O       1.87880      3.77993      6.68047         0.265747      0.870610      0.328317
O       1.98361     15.54692      6.65858         0.076266     -0.142303      0.323142
O      13.52249      3.85184      6.82215         0.579798      1.113827     -0.465573
O      13.67062     15.55902      6.69224        -0.287281      0.241294      0.190013
O       2.02759      4.03740     10.94372        -0.664805     -1.252697     -0.412714
O       1.99002     15.58888     10.78745        -0.207828      0.178930      0.153167
O      13.46583      3.94170     10.88631         0.339402     -1.239483     -0.015042
O      13.68967     15.60507     10.90598         0.002622      0.064167     -0.577160
O       2.00863      7.72973      2.47210        -0.202760      0.605255      0.161245
O       1.77109      7.78775     14.95296         0.556267      0.232751      0.166232
O      13.47803      7.85781      2.40665         0.207337     -0.046953      0.250932
O      13.50456      7.70483     15.03203         0.805172      1.150679      0.318813
O       1.79584      7.74414      6.64043         0.393185     -0.243194      0.548249
O      13.66804      7.78601      6.72124         0.146549     -0.936752      0.128630
O       1.84557      7.80113     10.96866         0.376744      0.389130     -0.354139
O      13.58991      7.82955     10.79138         0.210986      0.792685      0.375983
O       1.89763     11.70147      2.49007         0.210508     -1.129190      0.102943
O       1.86972     11.67991     15.08951        -0.091973      0.183766      0.111550
O      13.68936     11.74491      2.46259        -0.207271     -0.986375      0.159103
O      13.70070     11.70772     15.00102        -0.304404     -0.375655      0.180348
O       1.99424     11.61234      6.81360        -0.373463      0.410182     -0.669168
O      13.61838     11.71122      6.78860         0.065623     -0.440554     -0.572084
O       1.97154     11.66172     10.82867        -0.096646      0.203737     -0.047347
O      13.77557     11.69172     10.77488        -0.565345     -0.005722      0.148881
O       5.87971      3.86723      2.42689         0.040680      0.578074      0.375589
O       5.77660      3.89797     15.07354         0.246163      0.393605     -0.134060
O       5.73214     15.55883      2.56076         0.347245     -0.578442     -0.028223
O       5.67020     15.55199     15.00460         0.879947     -0.111922      0.032517
O       5.89442      3.87401      6.65430        -0.405329     -0.708624      0.020600
O       5.86350     15.56362      6.59960         0.061722      0.018068      0.133580
O       5.82440      3.81084     10.88070         0.098830      0.377147     -0.126849
O       5.77663     15.55243     10.80614         0.376901      0.262268     -0.051001
O       5.85825      7.74995      2.49429        -0.350100      0.035713      0.050978
O       5.78188      7.85975     15.16294         0.626194     -0.618749     -0.845796
O       5.76546      7.78185      6.79975         0.385803     -0.627977     -0.552551
O       5.78392      7.76784     10.75472         0.543968     -0.232337      0.008455
O       5.77717     11.59497      2.60294         0.337619      0.801698     -0.174296
O       6.06958     11.66790     14.91489        -0.753861     -0.248323      0.118712
O       5.82730     11.62415      6.55652         0.143106      0.636172      0.280541
O       5.89637     11.69998     10.77299        -0.296883      0.144815      0.174105
O       9.67490      3.87757      2.37028         0.186111     -0.365867      0.387608
O       9.71024      3.88506     15.17430        -0.222838     -0.279655     -0.414422
O       9.80647      0.02000      2.64265        -0.315040     -0.196188     -0.106680
O       9.83295     15.57306     15.07156        -0.270884     -0.131613     -0.581881
O       9.78691      3.90495      6.86768        -0.191220      0.400960     -0.634012
O       9.58158     15.57224      6.67321         0.852108      0.017909     -0.296189
O       9.72277      3.86536     10.81016         0.038659     -0.369233      0.453211
O       9.68243     15.54804     10.92660        -0.070965      0.790098      0.178779
O       9.81122      7.79489      2.42105        -0.038084     -0.436841      0.521976
O       9.65603      7.76388     15.04697         0.764739     -0.179901     -0.130104
O       9.70438      7.75073      6.66005        -0.146586      0.827358      0.202650
O       9.56270      7.76992     11.00118         1.141584      0.743359     -0.784678
O       9.71948     11.73558      2.63634        -0.065906      0.105453     -0.394269
O       9.84613     11.65237     15.00068        -0.233131      0.448159     -0.174358
O       9.73796     11.71696      6.79536        -0.124385     -1.214421     -0.566040
O       9.66783     11.65863     10.84640         0.147107     -0.365731      0.365005
