  # total energy = -7878.68372991 
CRSYTAL
PRIMVEC
    15.6080000000000005    0.0000000000000000    0.0000000000000000
     0.0000000000000000   15.6080000000000005    0.0000000000000000
     0.0000000000000000    0.0000000000000000   16.6239999999999988
PRESSURE
0.206342 0.121719 0.946407 -0.37459 -0.129938 -0.04687
PRIMCOORD
320 1
Pb       3.95900      3.94777      4.15358        -0.434551      0.243324      0.030051
Pb       4.00704      4.02890      0.08432        -0.385030     -0.356453     -0.512749
Pb       3.88860      0.00205      4.06181        -0.315444      0.040678      0.151648
Pb       3.80230     15.57786     16.59833         0.465051     -0.137642      0.600564
Pb       0.05570      3.85225      4.10395        -0.473413      0.356893      0.901606
Pb      15.50838      3.85083      0.00237        -0.083566      0.109284     -0.058474
Pb      15.53106     15.59710      4.01942         0.860140     -0.440208      0.761734
Pb      15.52642     15.56096     16.60176         0.092348      0.095290     -0.125771
Pb       3.75486      3.85510      8.32065         0.120340     -0.589603     -0.002293
Pb       3.89694      0.03416      8.32631        -0.630741      0.085983     -0.185833
Pb      15.56504      3.83089      8.26027         0.290602      0.205016      0.308742
Pb       0.09147     15.57327      8.21056        -0.252618      0.256828      0.775788
Pb       3.91441      3.93600     12.37927        -0.128755     -0.408766      0.216210
Pb       3.85092     15.47814     12.32466         0.102152      0.084661      0.160742
Pb      15.57980      3.79241     12.43918         0.198978      0.151374     -0.154898
Pb      15.53831      0.18888     12.52954         0.453878     -0.670963     -0.785637
Pb       3.83823      7.81991      4.27614        -0.106592     -0.016136     -1.006530
Pb       3.83010      7.75068      0.01161         0.169897      0.188875      0.004342
Pb       0.15100      7.84692      4.18199        -0.243685      0.208168      0.077036
Pb       0.01487      7.75671      0.01659        -0.146317      0.302579     -0.327510
Pb       4.03913      7.73402      8.10706        -1.187858     -0.157022      1.366542
Pb      15.47923      7.78413      8.43152         0.731920     -0.392478     -0.105748
Pb       3.90726      7.84802     12.45802        -0.171077     -0.097154     -0.282488
Pb       0.00631      7.86708     12.53049        -0.262658      0.682571      0.219402
Pb       3.86309     11.68048      4.09312         0.012844     -0.288097      0.406146
Pb       3.90885     11.60666     16.47708        -0.243893      0.707639      0.894247
Pb      15.59265     11.65589      4.10410        -0.242504      0.145081     -0.150519
Pb      15.56833     11.76496     16.55266        -0.385136     -0.223996      0.593523
Pb       3.82886     11.64911      8.15742         0.469249      0.255172      0.013850
Pb      15.56369     11.64270      8.32248         0.194898      0.054408     -0.335805
Pb       4.00204     11.69199     12.36411        -0.396113      0.096637      0.248465
Pb       0.11910     11.57931     12.33346        -0.902931      0.190309      0.801082
Pb       7.85286      3.81157      4.17636        -0.096602     -0.020017     -0.317611
Pb       7.86109      3.97564      0.07971        -0.742544     -0.661396     -0.659028
Pb       7.81840     15.50123      4.02642        -0.575197     -0.244568      0.148348
Pb       7.88147      0.11805      0.04719        -0.544433     -0.825473     -0.050061
Pb       7.65501      3.95773      8.29501         0.059211     -0.072230      0.463992
Pb       7.81975     15.53333      8.33331         0.198274      0.197889      0.266924
Pb       7.71319      3.84668     12.40601        -0.083937     -0.276199      0.571322
Pb       7.71824     15.56916     12.50157        -0.189251      0.284736      0.480710
Pb       7.73992      7.83904      4.16204        -0.047795     -0.271478     -0.219303
Pb       7.86990      7.93966     16.60588        -0.670645     -0.560860     -0.283790
Pb       7.79082      7.77115      8.25747         0.282295      0.336928      0.699928
Pb       7.87689      7.63837     12.32100        -0.824588      0.623183      0.854029
Pb       7.93401     11.67533      4.26224        -0.546165      0.274648     -0.287300
Pb       7.72778     11.66113      0.03212        -0.065383      0.573393     -0.312421
Pb       7.65994     11.73660      8.14598         0.544011     -0.880036      0.564074
Pb       7.72897     11.55049     12.41362        -0.237617      0.274007      0.237491
Pb      11.72779      3.94445      4.24524        -0.045114     -0.418904     -0.057253
Pb      11.76624      4.03268      0.04165         0.018212     -1.020212      0.662856
Pb      11.52472     15.53727      4.11144         1.003537     -0.014537      0.960869
Pb      11.59385     15.55855      0.05935         0.306782     -0.147965     -0.354512
Pb      11.76949      3.98897      8.30320        -0.327347      0.353699      0.651487
Pb      11.66771      0.08180      8.23188        -0.176485     -0.816823      0.869975
Pb      11.83354      3.83953     12.53531        -1.202509     -0.093465      0.347673
Pb      11.86445     15.54970     12.42698        -1.030731      0.185197     -0.002183
Pb      11.70762      7.55192      4.03976        -0.068192      0.605879      0.278848
Pb      11.45075      7.77441     16.60831         1.383429      0.247417      0.545745
Pb      11.60265      7.91594      8.18982        -0.378401     -0.805894      1.109985
Pb      11.60859      7.81606     12.57127        -0.362136      0.646600     -0.105086
Pb      11.58945     11.45234      4.21884         0.682932      0.225561     -0.511840
Pb      11.77005     11.75822     16.55267        -0.116104     -0.380098      0.021981
Pb      11.95590     11.84242      8.33282        -1.098658     -0.258551      0.038027
Pb      11.65721     11.80766     12.41754         0.240422     -0.766018      0.636380
Ti       1.98612      2.09495      2.15656        -0.563887     -0.298549      0.273041
Ti       1.94555      2.00934     14.65469        -0.380328      0.061374     -0.290457
Ti       1.94782     13.74092      2.15033        -0.248891     -0.552802     -0.316621
Ti       1.89396     13.66509     14.70454         0.303142     -0.720561     -0.541671
Ti      13.66266      1.87522      2.37822        -0.477370      1.739326     -1.160976
Ti      13.60447      1.87031     14.62279        -0.053651      0.731420      0.705288
Ti      13.63434     13.64397      2.18334         0.066956     -1.179438      0.066723
Ti      13.61779     13.62433     14.57363         0.185012     -0.648245      0.514774
Ti       1.89042      1.81324      6.25537         0.595840      0.638743      0.900623
Ti       1.93802     13.55824      6.46917         0.070963      0.213422     -0.256708
Ti      13.54055      1.98091      6.45851         0.673940      0.048634     -0.878362
Ti      13.63357     13.72649      6.44853         0.238176     -0.382456     -1.160863
Ti       1.99070      1.86819     10.54545        -0.682049      0.070039     -0.131199
Ti       1.91374     13.53218     10.48567        -0.078934      1.426340     -0.202775
Ti      13.58151      1.98235     10.41123         0.471181     -0.404750      1.129612
Ti      13.64993     13.68309     10.56701         0.807096      0.074043      0.291393
Ti       1.81238      5.89466      2.17261         0.700515      0.166234      1.031341
Ti       1.99180      5.89106     14.52302        -0.457565      0.043262      0.259103
Ti      13.61546      5.78886      2.35818        -0.021880     -0.233797     -0.822847
Ti      13.73738      5.84149     14.66225        -0.139867     -0.067913      1.033959
Ti       1.89095      5.73967      6.48345        -0.972046      0.440640     -0.051677
Ti      13.63524      5.87611      6.48997         0.509714     -0.613841     -0.256486
Ti       1.66800      5.90199     10.59801         1.178765     -0.705180     -0.870442
Ti      13.41452      6.00341     10.71799         1.094598     -0.614924     -2.246128
Ti       1.97257      9.79027      2.16097        -0.163431     -1.314410      0.213877
Ti       1.88904      9.77443     14.76474        -0.649451      0.287981      0.087017
Ti      13.64318      9.67859      2.04486        -0.061276      0.673375      0.647417
Ti      13.63697      9.67189     14.80910         0.378049      0.783109     -0.194088
Ti       1.93158      9.62885      6.43085        -0.789419     -0.227833     -0.427562
Ti      13.67635      9.70671      6.43044        -0.013689      0.218771     -0.846855
Ti       1.96721      9.71058     10.43750        -0.589943     -0.386990     -0.347388
Ti      13.63754      9.77117     10.39872        -0.387466      0.527737      1.811691
Ti       5.84323      1.93110      2.26067         0.164511     -0.504374     -0.766283
Ti       5.69794      1.79706     14.85155         2.100952      0.868009     -1.543050
Ti       5.75384     13.57361      2.26723         1.075054      0.308147     -0.007489
Ti       5.79586     13.57022     14.53420         0.502208      0.034321      0.583139
Ti       5.81482      1.86628      6.30046        -0.843876      1.139968      1.041542
Ti       5.88796     13.76480      6.27267        -0.907103     -2.192667     -1.124589
Ti       5.83257      1.87574     10.43867         0.056709      0.393781      0.430667
Ti       5.84903     13.60947     10.29286        -0.247875      0.011754      2.526082
Ti       5.66741      5.84033      2.19362         0.586910      0.795008      0.025720
Ti       5.80000      5.84707     14.69699         0.782596     -0.589497      0.475489
Ti       5.84675      5.73821      6.39901        -0.174133     -0.758079     -1.347853
Ti       5.59951      5.83548     10.42721         1.558840     -0.086429      0.765555
Ti       5.84073      9.74210      2.16953        -0.549786     -0.279958      0.851675
Ti       5.77797      9.70558     14.64078         0.833053      0.113916     -0.326766
Ti       5.86769      9.68061      6.27032         0.680791      0.837258      0.411528
Ti       5.79794      9.72894     10.43670         0.962720     -0.446110      0.664899
Ti       9.78051      1.89457      2.32932         0.137460      0.842836     -0.371356
Ti       9.81419      1.86964     14.75213        -0.985834      0.279898     -0.511483
Ti       9.75823     13.58951      2.21036        -0.722199     -0.555098      0.265820
Ti       9.69423     13.59181     14.69174        -0.031730      0.403266      0.928445
Ti       9.60419      1.99396      6.55534         1.004547      0.266931     -2.141485
Ti       9.70875     13.65579      6.33377         0.316404     -0.546950     -0.501738
Ti       9.71297      1.89910     10.58644         0.061594      0.034423      0.827750
Ti       9.61324     13.67796     10.62202         0.123241      0.270310     -0.504762
Ti       9.51698      5.78257      2.17005         1.435140     -0.298664      0.144717
Ti       9.77726      5.77026     14.80176        -1.137449     -0.515224     -0.871804
Ti       9.72551      5.84051      6.36334        -0.283456      0.315906     -0.057504
Ti       9.62094      5.84565     10.57143         0.280460      0.076741     -0.242499
Ti       9.73425      9.65892      2.25165         0.933962      0.800441     -0.117249
Ti       9.69371      9.75803     14.66146         0.866630      0.361550     -0.446115
Ti       9.74997      9.74579      6.46807        -0.674906      0.082528     -0.501458
Ti       9.70468      9.79799     10.63668        -0.118652     -0.879168     -1.052136
O       1.89449      2.18631      0.39239         0.124297     -0.312360     -0.232090
O       1.88210      1.77265     12.81735         0.118876      0.313907      1.196080
O       2.00241     13.66201      0.37214         0.334491      0.084036      0.539709
O       1.91429     13.62437     12.90226        -0.068772      0.139413     -0.042343
O      13.62940      1.82557      0.60056         0.322935      0.260185     -0.273241
O      13.51077      1.97946     12.82824         0.474730     -0.267765      0.124624
O      13.76392     13.82093      0.40311        -0.581364     -0.065187      0.630880
O      13.66701     13.53178     12.78624         0.053259      0.530596     -0.104331
O       2.02553      1.81419      4.51351        -0.150845      0.325556     -0.197556
O       1.67202     13.43818      4.75067         0.320650      0.507375     -0.833040
O      13.58319      2.26150      4.69915         0.236180     -1.141601     -0.192464
O      13.84690     13.59207      4.68950        -0.154739      0.367866     -0.030288
O       2.06640      1.82612      8.76146        -0.296937     -0.024951      0.106813
O       2.09338     13.59738      8.69298        -0.509392     -0.316418      0.070228
O      13.68934      1.92585      8.67016        -0.345143      0.220460     -0.725479
O      13.47854     13.68624      8.78957         0.177210     -0.322936     -0.635919
O       1.78310      5.70207      0.43496         0.247962      0.461228     -1.058203
O       2.02461      6.03526     12.73669         0.143135     -0.383008      0.383436
O      13.79782      5.61843      0.59906        -0.244492      0.423809     -0.844338
O      13.46522      5.89670     12.92510         0.017454     -0.043853     -0.905518
O       2.01404      5.89353      4.73149        -0.190969      0.026107     -0.413336
O      13.45319      5.85179      4.69528         0.273560      0.167579     -0.499624
O       1.54018      5.88902      8.75738         0.477508     -0.195209      1.276888
O      13.58234      5.80247      8.80327        -0.213414      0.360162      1.626695
O       2.05517      9.66623      0.40233        -0.100905      0.002312     -0.418978
O       1.92617      9.91197     12.99578         0.064485     -0.290193     -0.828909
O      13.73532      9.83100      0.28588        -0.259194     -0.322595      0.974739
O      13.84034      9.80858     13.07429        -0.342744     -0.310615     -1.027018
O       1.89370      9.56506      4.60167         0.254330      0.186341      0.358892
O      13.52817      9.65831      4.68141         0.003887      0.019314     -0.527498
O       1.86135      9.58085      8.65526         0.223743      0.731590      0.285239
O      13.64068      9.73805      8.63037        -0.116149      0.043585     -0.069658
O       5.83963      1.75313      0.46910        -0.399691      0.399857      0.378848
O       5.84830      1.83462     13.04726        -0.472265      0.076084      0.494355
O       5.64139     13.45716      0.53237        -0.084108      0.069258     -0.900683
O       5.88761     13.70960     12.75395        -0.566269     -0.422582      0.854579
O       5.90022      1.92861      4.52914        -0.183988      0.021687     -0.247572
O       6.02843     13.52787      4.47331        -0.556119      0.682841      0.752142
O       5.79520      1.86712      8.66467         0.099169      0.207623      0.141915
O       6.01620     13.56787      8.55999        -0.614755      0.236047     -0.887468
O       5.51824      5.83349      0.38862         0.605198      0.257952      0.398978
O       5.61288      5.77063     12.93208         0.092622      0.304529     -0.728399
O       5.77346      5.75418      4.54137        -0.083927      0.058598      0.739290
O       5.79370      5.55476      8.69204         0.118382      0.540565     -0.831088
O       5.88772      9.91523      0.39510         0.055349     -0.518437     -0.032648
O       5.66517      9.77879     12.83725         0.338081     -0.317395      0.129193
O       5.91706      9.41862      4.49826        -0.002034      0.542735      0.369374
O       5.95519      9.82607      8.70499        -0.607362     -0.488127     -0.794788
O       9.79124      1.59042      0.58600         0.299786      0.376439     -0.766054
O       9.75471      1.88631     13.00123         0.095599      0.326682     -0.497667
O       9.87935     13.61399      0.45369         0.040545      0.189536     -0.770549
O       9.78031     13.55068     12.96585        -0.221936      0.155233     -1.322730
O       9.72915      2.24160      4.67201        -0.466799     -0.804055      1.091792
O       9.66570     13.56144      4.50028         0.093562      0.104454      1.417881
O       9.62959      1.65668      8.83718         0.003072      0.459637     -1.292176
O       9.56391     13.82278      8.82692         0.404705     -0.356962     -0.211098
O       9.74859      5.86072      0.36487        -0.487523     -0.028111      0.471322
O       9.83640      5.80218     13.02295        -0.293554      0.095419      0.040177
O       9.66553      5.75236      4.55927        -0.173529     -0.061379      0.165980
O       9.62861      6.11257      8.80765         0.055887     -1.068742      0.345055
O       9.70170      9.76587      0.48751         0.088576     -0.362349     -0.545174
O       9.67761      9.68811     12.87094         0.112139      0.123828      0.500647
O       9.71094      9.76999      4.64189         0.226997     -0.087685     -0.567229
O       9.48906      9.46717      8.87266         0.819071      0.864888     -0.358218
O       3.84085      1.99053      2.52658         1.146110      0.254257      0.017285
O       3.80118      1.94328     15.08031         0.171872     -0.196630     -0.104195
O       3.79333     13.53171      2.76980         0.112801      0.471503     -0.526319
O       3.83998     13.18238     14.77990         1.035955      1.354752     -0.012157
O       0.10914      2.02937      2.57084        -1.269914     -0.789036      0.116955
O      15.57498      1.85703     14.95002         0.639639      0.332214     -0.187662
O       0.08036     13.70391      2.44773        -0.796659      0.144429      0.364563
O       0.01430     13.65670     15.06425        -0.437656      0.570091     -0.483479
O       3.85960      1.87993      6.69585         0.972316     -0.154420     -0.427053
O       3.97437     13.53755      6.58215        -0.380217      0.063611      0.081217
O       0.01589      1.84072      6.55312        -0.392276      0.010243      0.382290
O      15.52324     13.59586      6.95559         0.530442      0.043343     -0.428284
O       3.87618      1.89931     10.85451         0.500557      0.100494      0.041567
O       3.90180     13.57763     10.69241         0.530306      0.218599      0.207421
O      15.60683      2.08996     10.78560        -0.614638     -0.609663      0.259935
O      15.58084     13.70401     10.74253         0.502063     -0.625461     -0.202536
O       3.81037      5.77429      2.54817         0.247874     -0.151563     -0.053592
O       3.84959      6.02747     14.96596        -0.483754     -0.156443      0.178305
O      15.58926      5.92104      2.73272        -0.603657      0.344151     -0.313604
O       0.01626      5.84126     14.85158        -0.327646      0.095175      0.091224
O       3.74033      5.67731      6.83433         1.531143      0.714078     -0.142535
O      15.52483      5.57499      6.68441        -0.351781      0.809604     -0.305590
O       3.79867      5.95532     10.54976        -0.495712     -0.343515      0.658812
O      15.47390      5.86193     11.06640        -0.364099      0.007043     -0.339439
O       3.90310      9.65202      2.58852         0.350172      0.581561     -0.141250
O       3.94626      9.83205     14.94564        -0.576894     -0.531541      0.108752
O      15.56631      9.58079      2.45609        -0.054149      0.046429      0.148774
O       0.00541      9.68401     15.10181         0.154829      0.158574      0.128847
O       3.90254      9.54637      6.60240         0.236923      0.380034     -0.057706
O      15.58468      9.78400      6.57545        -0.154110     -0.014903      0.496663
O       3.82537      9.71667     10.73221         0.922490     -0.049490      0.009968
O      15.56529      9.71884     10.80713         0.143275      0.127883     -0.300040
O       7.85934      1.82632      2.51497        -1.159105     -0.020194      0.316189
O       7.72748      1.80085     15.14810         0.278889      0.221130     -0.198908
O       7.78209     13.70840      2.31050         0.034873      0.016388      0.628784
O       7.82072     13.72959     15.01271        -0.182172     -0.582016     -0.087478
O       7.75869      2.03690      6.80259         0.048701     -0.477099     -0.512481
O       7.72708     13.45133      6.55749         1.497762      0.814029      0.125600
O       7.76408      1.87584     10.90184        -0.381343      0.375291     -0.194656
O       7.70881     13.67829     10.85513         0.249825     -0.221775     -0.265661
O       7.66474      5.87835      2.37850         0.823510      0.061298      0.196448
O       7.70470      5.77614     14.98389         0.861732      0.223136      0.331453
O       7.72982      5.80949      6.67535         0.336500     -0.694125     -0.091920
O       7.70678      5.73458     10.96921         0.719119      0.387194     -0.617035
O       7.86275      9.64303      2.46545        -0.930586     -0.053036      0.351142
O       7.85470      9.70043     15.03272        -0.110544      0.098099     -0.096770
O       7.78737      9.62349      6.69818        -0.967100      0.082957     -0.512557
O       7.73241      9.66218     10.96171        -0.331382      0.425915     -0.070720
O      11.72026      2.01089      2.67523        -0.063969     -0.400954     -0.027603
O      11.75413      2.03105     15.02574        -0.215866     -0.285409      0.157428
O      11.72192     13.71343      2.49824         0.406317      0.009168      0.156069
O      11.76617     13.60856     14.95275        -0.130038      0.340172      0.085606
O      11.65805      1.80417      6.75364        -0.497534      1.040253     -0.073347
O      11.65558     13.67785      6.62414        -0.325673     -0.320139      0.246952
O      11.61301      1.70961     10.73363         0.659416      0.520092      0.078816
O      11.73511     13.55319     10.92059        -0.727071      0.721037     -0.477438
O      11.60617      5.61387      2.56066         0.557338      0.595020     -0.117289
O      11.65154      5.64393     15.11617         0.831461      0.879162     -0.451136
O      11.58739      5.92398      6.72947         0.358431     -0.228921      0.093243
O      11.59974      6.04542     10.93941         0.299545     -0.789982     -0.252277
O      11.74458      9.97448      2.38295        -0.890847     -0.581460      0.461091
O      11.76234      9.71960     15.05631        -1.259469     -0.107102     -0.049780
O      11.60446      9.72378      6.75088         0.836316     -0.099557     -0.066724
O      11.61941      9.81868     10.87674         0.913061     -0.157368     -0.404488
O       1.84079      4.03065      2.61310         0.684603     -1.445044     -0.133110
O       2.04218      4.00414     14.62637        -0.370632     -1.412063      0.423414
O       2.01408      0.01414      2.37504         0.116533      0.019993      0.260811
O       2.04715     15.58757     15.10928        -0.404889     -0.019231     -0.785557
O      13.76504      3.91917      2.61564        -0.170050     -0.609796      0.241914
O      13.75234      3.88829     14.94253        -0.296205     -0.003406      0.114219
O      13.64391      0.03113      2.67390         0.138905     -0.698135      0.101188
O      13.67183     15.60702     14.79726        -0.022214     -0.132945      0.207668
O       1.91279      3.80248      6.78843        -0.038579     -0.525259     -0.421051
O       2.06411     15.49737      6.71153        -0.651394      0.354531     -0.171517
O      13.52912      3.91955      6.82779        -0.260441     -0.662105     -0.085343
O      13.59482      0.02127      6.74200         0.454577     -0.379045     -0.341211
O       1.88161      3.90742     10.88911         0.306195      0.605024     -0.084844
O       1.96624     15.50783     10.75185        -0.045955      0.581340      0.280135
O      13.38047      3.84581     10.87352         0.630521      0.786844     -0.399005
O      13.76153      0.08409     10.77497        -0.526643     -0.935039      0.474981
O       2.02794      7.79509      2.45107        -0.383464     -0.644647      0.399849
O       1.80529      7.83806     14.92416         0.803086     -0.505980      0.303467
O      13.32675      7.80862      2.32840         0.688967     -0.506102      0.414443
O      13.64745      7.75813     15.14576        -0.114844     -1.201553     -0.322944
O       1.76905      7.76425      6.78268         0.302791     -0.422685     -0.374231
O      13.75434      7.71013      6.80331        -0.485970      0.975626     -0.316039
O       1.85539      7.89484     10.97933        -0.046405     -0.879247     -0.501228
O      13.60453      7.90532     10.87950        -0.075145     -0.923842      0.012870
O       1.91200     11.58169      2.47344        -0.013801      1.427240      0.383831
O       1.77367     11.68629     15.20307         0.683086     -0.129545     -0.945031
O      13.69798     11.73712      2.44227         0.275452      0.451379      0.135404
O      13.66683     11.77005     15.04058         0.221056     -0.130665     -0.045378
O       1.94902     11.63386      6.71924         0.073580     -0.580655      0.374251
O      13.59530     11.62847      6.69176        -0.003784      0.833275      0.520591
O       1.97575     11.64945     10.77163        -0.323252     -0.046339     -0.188131
O      13.72600     11.64400     10.74320        -0.370744      0.393101     -0.318747
O       5.93413      3.85873      2.38936        -0.669945     -0.253098      0.367640
O       5.75197      3.90430     15.11746        -0.277211     -0.344121     -0.126017
O       5.70848     15.53454      2.55764         0.053848      0.577201      0.114233
O       5.76914     15.41917     15.01822        -0.944425      0.547796      0.088248
O       5.82474      3.78917      6.61017        -0.089675      0.214469      0.135882
O       5.94755     15.56536      6.55021        -0.134980      0.734981      0.092033
O       5.82170      3.85565     10.85187        -0.374461     -0.130304     -0.060696
O       5.83533     15.60317     10.67017        -0.258756     -0.680190      0.049300
O       5.76330      7.78007      2.39056         0.235400     -0.243082      0.020467
O       5.94224      7.81927     15.03378        -0.594323      0.239716     -0.032816
O       5.81540      7.56807      6.68283        -0.166747      1.588757     -0.250298
O       5.90518      7.75251     10.61370        -0.617884     -0.093172      0.415081
O       5.82731     11.66161      2.59785         0.077254     -0.990243      0.075883
O       6.08794     11.64523     14.83857        -0.404990      0.213425      0.293047
O       5.87994     11.54974      6.47811        -0.406710     -0.457028      0.164422
O       5.86028     11.68890     10.69754        -0.078227      0.008399      0.180464
O       9.62995      3.83824      2.26635        -0.405325      0.350307      0.597540
O       9.60422      3.74667     15.21896         0.732368      0.899177     -0.270423
O       9.77391     15.54959      2.72805        -0.028365      0.242502     -0.542041
O       9.87036     15.55094     14.97103         0.007578      0.166967      0.495892
O       9.77179      3.92274      6.86791        -0.273861     -0.249237     -0.021458
O       9.67143     15.57367      6.53008        -0.455657     -0.017166      0.316833
O       9.75018      3.89525     10.90700         0.145114     -0.352349     -0.518334
O       9.60846     15.54826     11.07208         0.649437     -0.135105     -0.451399
O       9.87959      7.70464      2.45508        -0.421017      0.590189      0.062081
O       9.82885      7.75560     15.01599        -0.576081      0.098698     -0.205350
O       9.60981      7.78643      6.67785         0.497464     -0.688133     -0.301456
O       9.73514      7.80602     10.95413        -0.281119     -0.716990      0.480556
O       9.67638     11.72057      2.60574         0.210449     -0.596434     -0.167338
O       9.87887     11.65005     14.92547        -0.552806     -0.149265      0.403072
O       9.68793     11.64222      6.70605         0.136612      0.831980     -0.000819
O       9.63290     11.70430     10.95956         0.104781      0.384966     -0.552129
