  # total energy = -7882.78228296 
CRSYTAL
PRIMVEC
    15.6080000000000005    0.0000000000000000    0.0000000000000000
     0.0000000000000000   15.6080000000000005    0.0000000000000000
     0.0000000000000000    0.0000000000000000   16.6239999999999988
PRESSURE
-1.0122 -1.22761 -0.699028 0.162834 -0.407521 -0.070105
PRIMCOORD
320 1
Pb       3.76754      3.82711      4.14037         0.351634      0.060922      0.043958
Pb       3.78131      3.77745     16.51109         0.353404      0.186819      0.184099
Pb       3.90851     15.46241      4.21922         0.424590      0.275446     -0.567728
Pb       4.00449      0.00435     16.59905         0.097407     -0.367393     -0.215155
Pb       0.03010      3.94638      4.14552        -0.137131     -0.391797     -0.045763
Pb       0.02436      3.90969      0.01335        -0.054938     -0.144128     -0.595815
Pb       0.04704     15.53633      4.27230        -0.070504      0.407432     -0.736081
Pb      15.60209     15.60192     16.59911         0.209175     -0.034027     -0.049377
Pb       4.04751      3.95585      8.22930        -0.200516     -0.294689     -0.120587
Pb       3.88261     15.43612      8.27104         0.146006      0.527303      0.518529
Pb       0.03469      3.92856      8.29194        -0.270652     -0.096035     -0.291613
Pb      15.53021     15.55200      8.36343        -0.099441      0.530546     -0.120928
Pb       3.91462      3.77561     12.38710        -0.512065      0.524035      0.444858
Pb       3.97791      0.13742     12.46421        -0.677334     -0.640227     -0.038868
Pb      15.56451      3.99462     12.50210         0.417585     -0.433659     -0.003684
Pb       0.01202     15.46292     12.32518        -0.072380      1.228512      1.081256
Pb       3.97229      7.71479      4.05290        -0.188112      0.177181      0.340752
Pb       3.89598      7.84470      0.03188        -0.181052     -0.287664     -0.769939
Pb      15.45453      7.72331      4.13508        -0.041717      0.245655     -0.320057
Pb      15.59175      7.75189      0.00721         0.492972     -0.193833     -0.894736
Pb       3.79945      7.80547      8.31146         0.141952     -0.076932     -0.546745
Pb       0.03687      7.76257      8.19070        -0.077865      0.135513      0.236374
Pb       3.83154      7.75390     12.38802         0.067800      0.106787      0.492576
Pb       0.00706      7.74301     12.36538        -0.070623      0.125798      0.354122
Pb       3.93264     11.62286      4.22666        -0.123249      0.206161     -1.056148
Pb       3.86514     11.70786      0.06373        -0.187232      0.117757     -0.161012
Pb       0.02811     11.61641      4.16888        -0.041514      0.022646     -0.441730
Pb      15.59839     11.55947     16.53795         0.165971      0.487550      0.123376
Pb       3.92453     11.62947      8.42937        -0.372144      0.498068     -0.049580
Pb       0.06707     11.74513      8.31877        -0.109095     -0.241476      0.075576
Pb       3.78205     11.66335     12.51756         0.217862      0.397487     -0.621247
Pb      15.43241     11.84670     12.51136         0.606283     -0.866345      0.024646
Pb       7.86296      3.98179      4.09979        -0.130908      0.043133      0.131981
Pb       7.81984      3.79924      0.05573        -0.252612     -0.025213     -0.606200
Pb       7.90076      0.04564      4.21622        -0.514802     -0.236505     -0.155925
Pb       7.80274     15.51975     16.53313        -0.664066      0.260017      0.083801
Pb       7.92474      3.84419      8.18453        -0.673261     -0.201514     -0.222170
Pb       7.70400      0.01981      8.20444         0.079983     -0.024220     -0.063036
Pb       7.84553      3.92348     12.56362        -0.018487      0.273009     -0.590319
Pb       7.75612     15.58807     12.34220         0.087973      0.245863      0.022017
Pb       7.90631      7.77690      4.17879        -0.298834     -0.324198     -0.305574
Pb       7.70642      7.56961      0.08164         0.461736      0.518833     -0.525133
Pb       7.71789      7.73190      8.28498        -0.323096      0.099407     -0.206753
Pb       7.63649      7.96982     12.52433         0.227960     -0.481578     -0.423192
Pb       7.80083     11.62198      4.14286        -0.031424      0.227146     -0.511116
Pb       7.85259     11.68745      0.02752        -0.013427      0.076432     -0.170771
Pb       7.93253     11.61545      8.43435        -0.836065      0.464872     -0.274702
Pb       7.76449     11.84128     12.47395        -0.315255     -0.364425     -0.421521
Pb      11.59772      3.85495      3.96963         0.501684      0.395266      0.499068
Pb      11.62647      3.73483      0.00687        -0.045318      0.569865     -0.229385
Pb      11.83919      0.00040      4.15062        -0.185050      0.225611     -0.317347
Pb      11.77653     15.59750     16.55940        -0.451658     -0.145872      0.059311
Pb      11.66294      3.76940      8.22408         0.562887      0.068619     -0.352297
Pb      11.82581     15.53318      8.37531        -0.162230      0.559930     -0.342925
Pb      11.57469      3.94310     12.32713         0.043125     -0.268887     -0.109164
Pb      11.58339      0.08633     12.52825         0.073048      0.199789     -0.829447
Pb      11.65925      8.08672      4.23481         0.304704     -0.963979      0.089589
Pb      11.80320      7.74755     16.59723        -0.646350      0.093281     -0.438304
Pb      11.70930      7.66993      8.38387         0.163714      0.136760     -0.810368
Pb      11.81074      7.75654     12.44812        -0.441773     -0.334531     -0.580666
Pb      11.72955     11.92670      4.07849        -0.148521     -0.591481     -0.046144
Pb      11.52813     11.64990      0.04956         0.338139      0.327613     -0.596492
Pb      11.55076     11.62569      8.28937         0.317684     -0.015961     -0.123021
Pb      11.68639     11.55348     12.54054        -0.242947      0.461113     -0.314449
Ti       1.88411      1.92026      2.18977        -0.034137     -0.994159     -0.227962
Ti       1.86455      1.81247     14.74182        -0.047181      0.776618     -0.730637
Ti       1.97104     13.57820      2.27766        -0.040258     -0.069311     -1.043851
Ti       1.93966     13.56932     14.70177         0.327950      0.586028     -0.028632
Ti      13.60565      1.95030      2.11921         0.479163      0.157398      0.161255
Ti      13.53668      2.05670     14.62895         0.608881     -0.610457     -0.286424
Ti      13.72650     13.62460      2.19894        -0.179879      0.484186     -0.793047
Ti      13.61136     13.71481     14.71948        -0.108712     -0.933184     -0.360890
Ti       1.89910      1.94729      6.44310        -0.238726      0.729141     -0.948491
Ti       1.87562     13.73111      6.37814         0.520235     -0.924578      0.472318
Ti      13.65753      1.98817      6.22265        -0.094753     -0.065960      1.387109
Ti      13.64380     13.62844      6.40383        -0.177385      0.473777      0.706619
Ti       1.90691      1.98079     10.49671        -0.585109     -0.186087      0.025399
Ti       1.86643     13.68980     10.58343         2.097268     -0.344799     -0.158363
Ti      13.69323      1.93688     10.60631        -0.887676     -0.056581     -0.747066
Ti      13.60813     13.61076     10.58069        -0.842916      0.282315     -0.215209
Ti       1.93302      5.79545      2.18501         0.295538      0.684345      0.259275
Ti       2.02415      5.77241     14.64911        -0.733756      0.108383      0.244170
Ti      13.62311      5.91018      2.07312        -0.561830     -0.545794      2.053661
Ti      13.63012      5.84570     14.59606         0.225772      0.234184      0.324545
Ti       1.96055      5.90506      6.28547        -0.014933     -0.320443      0.225194
Ti      13.65691      5.86528      6.28480        -0.540927     -0.307534      0.517355
Ti       1.95825      5.76827     10.51832        -0.526794      0.058914      0.098009
Ti      13.67970      5.73992     10.41364        -0.413613      0.392663     -0.302531
Ti       1.88349      9.63599      2.23328         0.244337      0.760433     -0.206943
Ti       1.96662      9.72095     14.66616        -0.278645     -0.796968     -0.469016
Ti      13.56262      9.80229      2.14632         0.788863     -0.561056      1.128811
Ti      13.65133      9.75162     14.58788        -0.037596      0.057286      0.283742
Ti       1.87180      9.82097      6.26772         0.083424     -0.546709      0.336047
Ti      13.60444      9.80855      6.44574        -0.230239     -0.615662     -0.146674
Ti       1.86168      9.72786     10.60456        -0.060702      0.437014      0.642859
Ti      13.58830      9.71257     10.42368         0.533519     -0.431184      0.021582
Ti       5.83470      1.94202      2.26181        -0.753167     -0.206720     -1.002699
Ti       5.76975      2.01712     14.62187         0.752333     -0.516094      1.188690
Ti       5.86377     13.62650      2.17841        -0.348279      0.334598     -0.010979
Ti       5.86187     13.63145     14.59793        -0.727784      0.794013      0.615695
Ti       5.74108      1.92769      6.32554         0.693711     -0.107697      0.943446
Ti       5.88018     13.59442      6.43339        -0.542183      1.003386     -0.770796
Ti       5.82791      2.00351     10.49516        -0.039566     -0.337498     -0.513570
Ti       5.79217     13.69353     10.55645        -0.992279     -0.590490     -0.364092
Ti       5.85865      5.77694      2.19469        -0.354374      0.557291      1.127803
Ti       5.83635      5.88873     14.60286        -0.354737      0.018525     -1.039643
Ti       5.90518      5.92296      6.38330        -0.763747      0.144591     -0.054243
Ti       5.80891      5.85493     10.52741         1.220972     -0.341352     -0.088631
Ti       5.82510      9.67632      2.11949        -0.449664      0.264473      1.812018
Ti       5.89376      9.82887     14.70694        -0.724606     -1.183490     -0.461642
Ti       5.68080      9.90611      6.35976         1.052363     -1.883123      1.453291
Ti       5.74232      9.72683     10.48785         0.086771      1.203897      0.650114
Ti       9.66659      1.89955      2.17374         0.890364      0.095921     -0.495352
Ti       9.63157      1.92018     14.65369        -0.174747      0.624991     -0.247562
Ti       9.68828     13.72400      2.15214         0.016848     -0.684983      0.063976
Ti       9.72778     13.65511     14.64859         0.326589     -0.470309     -0.128468
Ti       9.78659      1.79407      6.25748        -0.455749      0.791779      1.903792
Ti       9.75084     13.62224      6.31401        -0.011174      0.657189      1.156567
Ti       9.65441      1.99882     10.35819         0.877460     -0.693058      1.052391
Ti       9.77679     13.64653     10.49609        -0.326593      0.610857      0.879045
Ti       9.82198      5.88832      2.18003        -0.311409      0.359540      0.180550
Ti       9.69681      5.90752     14.57445         0.357949     -0.627443     -0.129018
Ti       9.75947      5.79560      6.36540         0.835003     -0.015484     -0.885136
Ti       9.72098      5.83944     10.35425        -0.632614      0.511676      1.820145
Ti       9.75747      9.81166      2.25173        -0.483497     -0.308027     -0.486081
Ti       9.73120      9.65397     14.67788        -0.169570      0.488253     -0.610422
Ti       9.60023      9.69417      6.34741         0.736386     -0.112424      0.214085
Ti       9.64173      9.76220     10.58702         0.021193     -0.506301      1.250693
O       1.89015      1.94431      0.36968         0.381401     -0.106874      0.653535
O       2.02624      1.92658     12.98035        -0.346506     -0.035944     -0.430259
O       1.93628     13.46430      0.48134        -0.108356      0.283312     -0.041858
O       1.94035     13.64215     12.92181        -0.277148      0.017961      0.031331
O      13.55061      1.88284      0.31470        -0.217116     -0.230327      0.105174
O      13.44225      2.08410     12.82445         0.334679     -0.223281      0.994442
O      13.64416     13.61166      0.40556         0.037423      0.438938     -0.018634
O      13.60765     13.63066     12.89568         0.095629     -0.044758     -0.063745
O       1.73628      1.91628      4.60989         0.512539      0.274597      0.176233
O       1.74035     13.72159      4.57857         0.615343     -0.169240      0.073902
O      13.53809      1.96316      4.45356         0.386003      0.134398      0.069279
O      13.67709     13.65496      4.65076        -0.355934     -0.239409     -1.148646
O       1.81441      2.02998      8.73933        -0.047845     -0.147008     -1.143345
O       1.78877     13.84866      8.80612         0.174219     -0.812163     -0.406608
O      13.63230      1.81082      8.81144        -0.111760      0.275967     -0.237448
O      13.71540     13.76911      8.80385        -0.203305     -0.199507     -0.122174
O       1.99544      5.81944      0.44184        -0.125480     -0.322262     -0.589206
O       2.04745      5.55717     12.88940        -0.604994      0.684654     -0.275449
O      13.46418      5.97094      0.36039         0.268452     -0.061889     -1.406304
O      13.66860      5.87057     12.79670        -0.468335     -0.218805      0.723041
O       1.80369      5.90919      4.50636         0.166475     -0.141656     -0.359524
O      13.73909      5.87848      4.48737        -0.083208     -0.173337      0.380358
O       1.83074      5.90301      8.75820         0.252391     -0.096118     -1.011986
O      13.72546      5.63458      8.59127        -0.257731      0.762675      1.095521
O       1.88921      9.83087      0.43395         0.072412     -0.339961      0.085490
O       1.85859      9.65148     12.88541         0.570103      0.067012      0.072019
O      13.45979      9.85834      0.40513         0.304599     -0.261443     -0.751772
O      13.52934      9.71263     12.78414         0.197964     -0.039512      0.696381
O       1.87788      9.80553      4.48326        -0.124992     -0.127430      0.276339
O      13.63233      9.72173      4.65318        -0.083733      0.214197      0.039338
O       1.88755      9.68928      8.84928         0.223116      0.062635     -0.707142
O      13.66282      9.69711      8.62183        -0.196574      0.150372      0.680641
O       5.85826      2.01840      0.40547        -0.140928     -0.381369      1.259094
O       5.68862      1.95716     12.85489         0.231059      0.215201     -0.420053
O       5.98459     13.83018      0.39587        -0.653300     -0.431137      0.521849
O       5.80656     13.69657     12.81129         0.079965     -0.227515      0.744951
O       5.66795      1.92999      4.59508         0.461842      0.251622     -1.261694
O       5.58801     13.59556      4.59727         0.834676     -0.273376      0.972140
O       5.74721      1.99725      8.71352         0.274730     -0.193317      0.017230
O       5.80316     13.83119      8.72691        -0.113963     -0.276114      0.036991
O       5.92630      5.98645      0.46151        -0.260542     -0.296040     -1.336591
O       5.84454      5.80738     12.75487        -0.069191      0.307069      0.836929
O       5.84781      5.98283      4.62271         0.151666     -0.487342     -0.232546
O       5.96322      5.88456      8.70894        -0.679719     -0.199310      0.239961
O       5.80054      9.56871      0.38700         0.149208      0.323771     -0.360057
O       5.84469      9.70640     12.87887         0.118036      0.376283      1.011856
O       5.66462      9.88906      4.61881         0.640351      0.181960     -1.071154
O       5.66030      9.89712      8.70312         0.118662     -0.614066      0.342537
O       9.67572      2.00752      0.33327         0.029252      0.118365      0.379909
O       9.64745      2.02882     12.86960         0.142813     -0.469099      0.173475
O       9.60926     13.56266      0.36301         0.220935      0.242546      0.073844
O       9.78712     13.76833     12.86277        -0.301441     -0.174624      0.312771
O       9.72959      1.89609      4.52381        -0.015186     -0.330950     -1.662825
O       9.62094     13.79367      4.56695         0.455412     -0.668948     -0.709697
O       9.76723      2.03281      8.58258        -0.402232     -0.218138      0.441092
O       9.76791     13.59376      8.73444        -0.320713     -0.317873     -0.469399
O       9.70167      5.80001      0.38534         0.005499      0.045450      0.330702
O       9.71723      5.91188     12.78789        -0.055138      0.031269      0.128867
O       9.86250      5.89349      4.56609        -0.910898     -0.259480     -0.251191
O       9.85164      5.79277      8.59036        -0.531925      0.056379     -0.096705
O       9.73026      9.90182      0.46598         0.130801     -0.223349     -0.044788
O       9.63639      9.66632     12.80686         0.201419      0.125135      1.133869
O       9.66570      9.72089      4.56005        -0.028552      0.159865      0.078640
O       9.68579     10.11174      8.84121        -0.112203     -0.744177     -0.970178
O       3.88962      2.09476      2.58772        -0.335907     -0.280310     -0.544362
O       3.90440      1.88390     14.98058        -0.478118      0.394255      0.439709
O       3.87520     13.62521      2.49630        -0.366052      0.334750      0.129244
O       3.95729     13.60788     15.08037        -0.620065      0.082097     -0.182104
O      15.55177      1.93658      2.33033        -0.070120      0.190025      0.412387
O      15.57135      1.91821     14.99189        -0.947274     -0.363379     -0.063817
O      15.55235     13.64777      2.50257         0.323482      0.155025      0.225965
O      15.59551     13.63797     14.98056        -0.583887      0.097346      0.039855
O       3.83913      1.95468      6.72749        -0.497822      0.185292     -0.215114
O       3.77858     13.60185      6.82532        -0.118672      0.018654     -0.620508
O      15.54861      2.06181      6.63929         0.090849     -0.479336     -0.028089
O       0.00832     13.58614      6.72521        -0.778570      0.311774      0.095322
O       3.74174      1.97380     10.75271         1.381484     -0.047191      0.353860
O       3.86150     13.62835     10.92320        -0.616959      0.355680     -0.434804
O      15.54613      2.02623     10.89536         0.228270     -0.414722      0.235802
O      15.59367     13.64088     10.87982        -1.154797     -0.045936      0.206239
O       3.89229      5.81736      2.59940        -0.259937     -0.439449     -0.313016
O       3.88530      5.83666     14.91258         0.345231     -0.405747      0.485163
O      15.50251      6.00994      2.32540         0.770216     -0.602338      0.233367
O      15.57495      5.79558     14.98434        -0.440406     -0.020818      0.139759
O       3.97045      6.00860      6.70806        -1.023732     -0.797507     -0.010486
O       0.01715      5.91840      6.60111        -0.276171     -0.060823     -0.062022
O       3.82538      5.83767     10.80483         1.374826     -0.206717     -0.442335
O      15.51706      5.79672     10.94011         0.427205     -0.145315     -0.647154
O       3.90958      9.74000      2.51190        -0.172220     -0.195967     -0.215868
O       3.81330      9.74385     15.04027         0.828798      0.216998      0.027186
O      15.53244      9.65265      2.42498         0.178547      0.346319      0.211485
O       0.03660      9.73495     14.93164        -1.554007      0.077396      0.345860
O       3.80658      9.86841      6.62120        -0.196045      0.065198      0.353492
O      15.60215      9.72159      6.66760        -0.581251      0.126430     -0.079911
O       3.83236      9.79466     10.98994         0.061617     -0.566736     -0.561108
O       0.00619      9.60443     10.92724        -1.084379      0.424754     -0.548106
O       7.84472      1.89646      2.46734        -1.475612      0.168254      0.508008
O       7.70432      2.01278     14.86405         0.687832     -0.221518      0.347474
O       7.74042     13.60132      2.42670         0.052236      0.227887      0.855202
O       7.75546     13.71977     14.93043         0.524715     -0.822581     -0.217479
O       7.79587      1.82601      6.58400        -0.625760     -0.040687      0.086861
O       7.79653     13.76109      6.62029        -0.469188     -0.428430      0.003879
O       7.71593      1.97272     10.77189         0.505420     -0.142662     -0.072912
O       7.63908     13.68111     10.86509         1.698759      0.072976      0.020948
O       7.76813      5.87958      2.52945         0.821200      0.191319      0.245380
O       7.74089      5.97583     14.77558         0.080655      0.005830      0.752064
O       7.81374      5.87908      6.60643        -0.281103     -0.148263      0.418132
O       7.80768      5.83799     10.67455        -0.321070      0.264412      0.169696
O       7.85021      9.68067      2.62386        -1.418867      0.475349     -0.354253
O       7.73274      9.80989     15.13218         0.621171     -0.505559     -0.718335
O       7.68004      9.81925      6.69400         1.040570      0.093950      0.013741
O       7.61972      9.74267     10.85854         1.241562      0.503179     -0.458581
O      11.64769      1.90813      2.42797        -0.011343     -0.050447      0.004797
O      11.59959      1.98718     14.91223         0.109598     -0.093704      0.306276
O      11.61732     13.58007      2.39867         0.597202      0.350572      0.591503
O      11.65427     13.58306     15.02532         0.191551      0.539220      0.021891
O      11.66460      1.85059      6.61070         0.970021      0.269697     -0.012550
O      11.69213     13.71128      6.71786         0.075876     -0.439182     -0.325138
O      11.55778      1.95856     10.80831        -0.125538      0.115344      0.019074
O      11.64698     13.53912     10.79001         0.733011      0.342959      0.014241
O      11.63112      5.78272      2.55026         0.540027      0.208447     -0.580969
O      11.67607      5.93504     14.82112         0.217805     -0.061496      0.236055
O      11.65651      5.80482      6.65426         0.942830     -0.019841      0.077905
O      11.63878      5.92815     10.75774         0.134473     -0.488121     -0.166675
O      11.65940      9.81876      2.61542         0.175529      0.536332     -0.059855
O      11.61016      9.59708     14.94693         0.912489      0.527645     -0.304324
O      11.55962      9.66284      6.68604         0.624426      0.404338      0.188168
O      11.71479      9.78736     10.75501        -0.501012      0.184303      0.050148
O       1.86770      3.86966      2.50420        -0.176907      0.457094      0.327642
O       1.80950      3.82586     15.05994         0.824402      0.243214      0.177819
O       1.94962      0.00956      2.48505        -0.153986     -0.062796      0.174405
O       1.94493     15.52759     15.03170        -0.050317     -0.026577      0.391600
O      13.51589      3.93003      2.23665         0.361304     -0.345674      0.526506
O      13.62342      3.89701     15.05816        -0.246476      0.223458     -0.336280
O      13.62608      0.01941      2.63711        -0.106022     -0.727186     -0.752259
O      13.47326      0.00331     14.91603         0.447092      0.123414      0.038511
O       1.91770      4.00196      6.46143         0.341455     -0.413776      0.705732
O       1.82596      0.05398      6.67317         0.123266     -0.706533     -0.088708
O      13.68141      3.84721      6.65497        -0.458063      0.261066     -0.541243
O      13.70592     15.56506      6.62670        -0.032447      0.491125      0.037220
O       1.84932      3.90393     10.75172        -0.017428     -0.578118      0.392741
O       1.85979     15.60144     10.82391        -0.177170      0.451370      0.331208
O      13.57659      3.86155     10.75200        -0.256084      0.710844      0.284179
O      13.60861      0.02786     10.88408        -0.074540     -1.190335      0.353765
O       1.99570      7.73717      2.43236        -0.148608      0.547623      0.121566
O       1.92731      7.67011     15.00497        -0.080358      0.949079      0.051519
O      13.54589      7.87493      2.50045        -0.365627     -0.347399     -0.177697
O      13.73820      7.81088     15.00689        -0.511939      0.124053     -0.233227
O       1.95829      7.84474      6.65791         0.030349      0.299860      0.087699
O      13.55725      7.75049      6.68261         0.270619      0.047536     -0.066906
O       1.92237      7.62649     10.91944        -0.056443      1.654605      0.122153
O      13.58728      7.69846     10.68522         0.057092      0.966196      0.054128
O       1.90538     11.65316      2.57426        -0.185270      0.302766      0.237612
O       1.90162     11.66871     14.89750         0.150976      0.116869      0.340896
O      13.67427     11.71092      2.53608        -0.314463      0.107945      0.328309
O      13.57272     11.67780     14.85194         0.242575     -0.705683      0.117967
O       1.81879     11.70619      6.76532         0.322787     -0.019287     -0.494360
O      13.60058     11.71201      6.70695         0.074800     -0.346570      0.064182
O       1.87900     11.72244     10.88910        -0.114405     -0.528756     -0.150112
O      13.70152     11.66943     10.76158         0.058694      0.139597      0.205904
O       5.95587      3.93223      2.45537        -0.131510     -0.832001      0.498479
O       5.84031      3.96268     15.00707        -0.129622     -0.375091     -0.211678
O       5.74982      0.05596      2.64161         0.186788     -0.363275     -0.380570
O       5.86286      0.01561     14.95371        -0.261976     -0.088503     -0.110568
O       5.84928      3.82563      6.65952        -0.063666      1.092354     -0.000709
O       5.69025     15.54657      6.59363         0.282204      0.345607      0.335470
O       5.78255      3.86644     10.88692        -0.076342      0.675304     -0.556867
O       5.76278      0.07255     10.90421         0.043047     -0.045062     -0.264783
O       5.77182      7.76364      2.57098         0.493651      0.934303     -0.281997
O       5.72183      7.81012     14.90774         0.376574     -0.054306      0.290303
O       5.82818      7.89537      6.70226         0.160365     -0.085903      0.187250
O       5.82989      7.81344     10.77459        -0.536710     -0.402770     -0.082483
O       5.67532     11.72239      2.39475         0.975408     -0.715858      0.049641
O       5.83362     11.69524     15.08797         0.009561      0.306584     -0.369216
O       5.84406     11.76317      6.83928        -0.307168     -0.126006     -0.421905
O       5.74507     11.75172     10.80788         0.125912     -0.493423      0.005359
O       9.69329      3.82859      2.55857        -0.047834      0.633756     -0.300534
O       9.58122      3.96659     14.84348         0.356216     -0.398570      0.412627
O       9.67774     15.58742      2.47438         0.117856      0.066905     -0.043258
O       9.67854     15.55070     15.02291         0.469735      0.943098     -0.385941
O       9.67058      3.84343      6.56031         0.147423      0.148583      0.056815
O       9.75025     15.56296      6.66443        -0.082881     -0.245281      0.059188
O       9.62212      3.92728     10.72527         0.444718     -0.026618     -0.010867
O       9.69382      0.01362     10.74945        -0.158916     -0.119521      0.030874
O       9.82766      7.81783      2.47649        -0.327465     -0.071950      0.050194
O       9.71717      7.80531     15.07144        -0.460183     -0.028832     -0.212481
O       9.67532      7.75085      6.63618        -0.261524      1.165800      0.392149
O       9.68384      7.92832     10.65954         0.070672     -0.918862     -0.294010
O       9.66785     11.75064      2.47072         0.016033     -0.280995      0.822922
O       9.81456     11.65633     14.91270        -0.634483      0.175848      0.011326
O       9.75402     11.69447      6.62007        -0.313900      0.196098     -0.095919
O       9.60202     11.78591     11.00931         0.110302     -0.482818     -0.389202
