  # total energy = -7880.68722513 
CRSYTAL
PRIMVEC
    15.6080000000000005    0.0000000000000000    0.0000000000000000
     0.0000000000000000   15.6080000000000005    0.0000000000000000
     0.0000000000000000    0.0000000000000000   16.6239999999999988
PRESSURE
-0.052688 -0.181385 0.302531 -0.223478 -0.150163 0.017093
PRIMCOORD
320 1
Pb       3.97141      3.96294      4.16174         0.124047     -0.129488     -0.242923
Pb       4.03206      4.05943      0.10475        -0.675468     -1.048156     -0.543777
Pb       3.88838      0.01146      4.04678        -0.475944      0.066805      0.282947
Pb       3.78868     15.57325     16.60650         0.425227      0.415905     -0.010532
Pb       0.07069      3.84788      4.11153        -0.467533      0.000157      0.785533
Pb      15.48681      3.84519      0.00894         0.518348     -0.172342     -0.399105
Pb      15.52743     15.59295      4.00676         0.745652     -0.482673      0.643116
Pb      15.51032     15.55803     16.60017         0.414156      0.236026     -0.268286
Pb       3.72345      3.83848      8.32950         0.735332     -0.175857      0.134460
Pb       3.89652      0.04655      8.33096        -0.462655      0.096012     -0.191266
Pb      15.56291      3.81946      8.25966         0.021631     -0.399488      0.476062
Pb       0.11276     15.57015      8.19949        -0.483010      0.348499      0.898727
Pb       3.92086      3.94648     12.36591        -0.385280     -0.515754      0.605694
Pb       3.84558     15.44784     12.30099         0.113192      0.690237      0.520869
Pb      15.58176      3.77252     12.43452         0.103034      0.655456     -0.127461
Pb      15.53214      0.23219     12.54370         0.550449     -0.678037     -0.398541
Pb       3.82539      7.82881      4.30267         0.353473     -0.275501     -0.620531
Pb       3.82203      7.74516      0.01806         0.090153      0.173813     -0.414893
Pb       0.19063      7.86681      4.19642        -0.866102     -0.162594      0.078025
Pb       0.02068      7.74965      0.02400         0.034481      0.002676     -0.291681
Pb       4.06556      7.72174      8.08150        -0.776714     -0.073624      1.298259
Pb      15.46116      7.77864      8.46985         0.356399     -0.001412     -0.347795
Pb       3.91154      7.86253     12.45621        -0.346438     -0.145895     -0.093637
Pb       0.00592      7.89757     12.55621        -0.025624     -0.018227     -0.347904
Pb       3.85992     11.67629      4.08796        -0.377665      0.105187      0.575186
Pb       3.91314     11.59757     16.45619         0.078784      0.583829      0.762991
Pb      15.59080     11.65157      4.09641         0.051858      0.524402     -0.067282
Pb      15.56016     11.78269     16.55122         0.018679     -0.055606      0.413276
Pb       3.82431     11.64158      8.12656         0.469511     -0.038429      0.220346
Pb      15.55864     11.63513      8.32803         0.228053      0.173465      0.028650
Pb       4.02493     11.69518     12.34940        -0.532363     -0.235355     -0.057386
Pb       0.14248     11.55418     12.31857        -0.445951      0.302054      0.261683
Pb       7.86653      3.79249      4.18526        -0.588645      0.103474      0.028090
Pb       7.87095      3.99187      0.09563        -0.798595     -0.744155     -0.473714
Pb       7.81853     15.47958      4.00424        -0.828035      0.239457      0.968784
Pb       7.89917      0.14056      0.06703        -0.724616     -0.609512     -0.139568
Pb       7.62908      3.97529      8.30433         0.017686     -0.606933      0.093122
Pb       7.83287     15.52059      8.34759         0.329613      0.452870     -0.504037
Pb       7.69275      3.83671     12.40071         0.077021     -0.198384      0.435015
Pb       7.69973     15.56545     12.52294        -0.065716      0.244645      0.026946
Pb       7.72608      7.85073      4.16855         0.112245     -0.323164     -0.462929
Pb       7.87914      7.97206     16.60300        -0.501193     -0.355630     -0.109773
Pb       7.79298      7.77240      8.25944        -0.104767     -0.121096      0.128254
Pb       7.88120      7.60758     12.30687        -0.616164      0.805928      1.235098
Pb       7.96080     11.67408      4.29015        -0.617299      0.074298     -0.290099
Pb       7.71147     11.66012      0.04216        -0.215502      0.145505     -0.641441
Pb       7.63426     11.73888      8.12125         0.559896     -0.255330      0.318327
Pb       7.71196     11.52418     12.41080         0.027060      0.384113      0.365306
Pb      11.73759      3.95114      4.28026         0.001970     -0.136180     -0.193107
Pb      11.78733      4.05595      0.06182        -0.074938     -0.448293      0.304823
Pb      11.49955     15.52335      4.12225         1.269488     -0.101657      0.752206
Pb      11.57581     15.54917      0.07724         0.497945      0.065930     -0.410890
Pb      11.77783      4.02127      8.32079        -0.451611     -0.291448      0.530278
Pb      11.65594      0.09584      8.23137        -0.033720     -0.659366      0.391827
Pb      11.85211      3.82883     12.56508        -0.732469      0.496999     -0.454318
Pb      11.89339     15.54102     12.42223        -1.148498     -0.000122     -0.080506
Pb      11.71532      7.50637      4.02208        -0.401577      0.683135      0.405719
Pb      11.40741      7.77447     16.61652         1.258178      0.018322      0.491612
Pb      11.57700      7.93691      8.18491         0.157403     -0.590819      0.650575
Pb      11.58969      7.83265     12.60353        -0.239115     -0.146720     -0.261105
Pb      11.57652     11.39595      4.23593         0.910374      0.527982     -0.134459
Pb      11.78525     11.77162     16.54211        -0.437458     -0.460781     -0.017283
Pb      12.00822     11.87962      8.34432        -1.433158      0.000355      0.558932
Pb      11.65253     11.83082     12.41493        -0.013004     -0.412091     -0.012025
Ti       1.98258      2.11055      2.16417         0.447905     -1.839105     -0.750154
Ti       1.93321      2.01771     14.64009         0.838678     -0.259316      0.907785
Ti       1.96351     13.71923      2.12117        -0.703997     -0.001098      1.528804
Ti       1.95398     13.64255     14.63212        -0.156222      0.420681      0.994886
Ti      13.65962      1.94050      2.35587        -0.264431     -0.540587     -0.066034
Ti      13.57103      1.91663     14.67374         0.864278     -0.426409     -0.266923
Ti      13.61358     13.61665      2.17817         0.436970     -0.295679      2.216617
Ti      13.63693     13.62290     14.55520         0.144321      0.383953      0.740899
Ti       1.92123      1.85028      6.25610        -0.072806     -0.215989      0.248728
Ti       1.91138     13.53356      6.47381         0.215695      0.181717     -1.791777
Ti      13.57794      1.96136      6.41622         0.141390     -0.347511      0.534091
Ti      13.66753     13.71395      6.40929        -0.204382     -0.195294      0.387765
Ti       1.94037      1.90024     10.57690         0.490930     -0.442025     -1.088725
Ti       1.91890     13.58026     10.46762        -0.131486      0.275560     -0.374945
Ti      13.60408      1.99518     10.44999         0.139300     -0.194723     -0.666360
Ti      13.67817     13.68675     10.59690         0.168660     -0.384943     -1.705219
Ti       1.82538      5.88630      2.19783         1.030052     -0.145015     -0.403022
Ti       1.97412      5.89342     14.52200         0.093174     -0.470784     -0.122045
Ti      13.65454      5.79890      2.30948        -0.881713      0.211209     -0.967507
Ti      13.73446      5.83075     14.65935        -0.573950     -0.001426     -0.068655
Ti       1.82252      5.73967      6.49254         1.152861      0.684509     -1.197632
Ti      13.63210      5.84671      6.47183        -0.403413      0.724776     -1.341071
Ti       1.70324      5.85275     10.58323         0.553921      0.068611      1.600492
Ti      13.42531      6.02749     10.64030         1.153532     -1.208759      0.966036
Ti       1.96300      9.74897      2.15556         0.047802      0.328363     -0.486687
Ti       1.88076      9.81655     14.75430         0.594622     -0.998127     -0.853771
Ti      13.63831      9.67768      2.11381        -0.159179      0.292567      0.102475
Ti      13.63842      9.67292     14.80136        -0.079269      0.365639     -1.329100
Ti       1.90423      9.59528      6.41702         0.029329      0.497273      1.124821
Ti      13.64927      9.74248      6.39215         0.080583     -0.140644      0.319001
Ti       1.96090      9.67314     10.41324         0.134020      0.428395      0.068412
Ti      13.60837      9.77131     10.47032        -0.179849      0.666631      0.972867
Ti       5.84963      1.89665      2.24740        -0.213659      0.347184     -0.031760
Ti       5.76241      1.82035     14.83797        -0.279692      0.122643     -0.753999
Ti       5.78236     13.56089      2.26502         0.164799      0.394736     -1.011489
Ti       5.79472     13.54886     14.53789         0.553752      0.852711      1.658601
Ti       5.77762      1.87259      6.27853         1.042071      0.584853      0.640500
Ti       5.85708     13.71302      6.24160        -0.162605     -0.962110     -0.226128
Ti       5.84450      1.90147     10.44832        -0.783471      0.006656     -0.251675
Ti       5.87364     13.61217     10.31425        -0.604469     -0.073398      1.546277
Ti       5.71784      5.86623      2.18317        -0.039532      0.047826      0.530028
Ti       5.82679      5.84144     14.71840        -0.200473     -0.404526     -0.483023
Ti       5.84644      5.71916      6.37155        -0.391815     -0.014410     -0.446039
Ti       5.63508      5.82649     10.46394        -0.020746     -0.297468     -1.307552
Ti       5.84279      9.76689      2.21640         0.133627     -1.094887      0.109226
Ti       5.80683      9.68932     14.65149         0.340459      0.030533     -0.568764
Ti       5.91422      9.67408      6.27320        -1.318682      0.377878      1.133491
Ti       5.81535      9.68926     10.40528        -0.080086      0.040223     -0.281074
Ti       9.78222      1.89836      2.34706        -0.389801      0.611960     -1.884672
Ti       9.80778      1.89866     14.73984        -0.699493     -0.324552      0.011728
Ti       9.74025     13.57019      2.19690         0.250266     -0.468148      0.157778
Ti       9.69025     13.61725     14.69942        -0.134795     -0.115892     -0.530401
Ti       9.63186      2.04578      6.51319        -0.074600     -1.009286      0.195348
Ti       9.74761     13.65558      6.32923        -0.138329      0.471743      2.660274
Ti       9.74504      1.89045     10.57905        -0.072841     -0.074535     -0.360680
Ti       9.61783     13.69399     10.61923         1.422080     -0.244919     -1.351303
Ti       9.52929      5.76853      2.18477         2.275954      0.821077     -0.110594
Ti       9.73610      5.69874     14.82198        -0.222557      0.881410     -1.641803
Ti       9.71922      5.80861      6.39255        -0.277317      0.112434     -0.696708
Ti       9.60325      5.80830     10.56854         1.638874     -0.306560      0.588761
Ti       9.80842      9.70979      2.24187        -0.662042     -0.635510     -0.952606
Ti       9.74271      9.77019     14.66759        -0.520742     -0.067267      0.302528
Ti       9.72808      9.75630      6.44534         0.315329      0.420091     -0.733904
Ti       9.71845      9.80105     10.57508         0.248474     -0.193407      0.615267
O       1.93415      2.16977      0.33851        -0.344335     -0.258878      1.370748
O       1.95181      1.80831     12.85500        -0.515442     -0.130983     -0.690086
O       2.03909     13.65434      0.39278         0.051781     -0.220136     -0.747444
O       1.89329     13.63268     12.90439        -0.048692     -0.056430     -1.018120
O      13.70005      1.84187      0.59182        -0.113069      0.429379     -0.779095
O      13.59245      1.99299     12.84403         0.191011     -0.380627      0.036672
O      13.73932     13.85006      0.48892        -0.508142     -0.379052     -1.725757
O      13.63443     13.57660     12.79268         0.240098      0.107492     -0.490382
O       1.98439      1.80591      4.46888        -0.091616      0.683169      1.069807
O       1.71482     13.47039      4.67359         0.306911      0.272181      0.838078
O      13.62912      2.12569      4.68649        -0.215265     -0.427942     -1.082644
O      13.86527     13.58874      4.68771        -0.232751      0.084079     -0.610259
O       2.03162      1.80346      8.71862        -0.157768      0.335857      0.897526
O       2.06355     13.53929      8.66899        -0.161887      0.248804     -0.266433
O      13.63131      1.91819      8.64442        -0.096911      0.381078      0.748103
O      13.46967     13.67793      8.73138         0.522901     -0.106283      0.348027
O       1.78676      5.78976      0.38761         0.138856      0.094186      1.052122
O       2.05153      6.04020     12.71887        -0.090493     -0.559735      0.918595
O      13.76045      5.62731      0.51056         0.007704     -0.036400      0.004132
O      13.42132      5.87390     12.90051         0.345027     -0.128761      0.548017
O       1.99593      5.88730      4.68319        -0.462464     -0.211038      0.611439
O      13.44989      5.89416      4.64263         0.464757     -0.361987      0.494207
O       1.55105      5.83093      8.86242         0.054514     -0.200464     -1.803314
O      13.55817      5.84880      8.89343         0.243458      0.219966     -1.724369
O       2.01069      9.66990      0.35699        -0.130032      0.028707      1.019055
O       1.90792      9.86465     12.92899        -0.182306     -0.225402      0.327171
O      13.60071      9.79598      0.35744         0.298073     -0.242109     -0.410148
O      13.80121      9.76920     12.94980        -0.436532     -0.243375      1.526114
O       1.92177      9.58774      4.64025        -0.005176     -0.062955     -0.762760
O      13.55894      9.67594      4.64930        -0.163940      0.159034     -0.904237
O       1.91466      9.62055      8.64487        -0.127857      0.195940     -0.387373
O      13.58805      9.75988      8.68032         0.309894     -0.256976      0.295420
O       5.83712      1.78704      0.48797        -0.045947      0.196557     -0.644017
O       5.78264      1.81200     13.04574         0.327209      0.240913     -0.290313
O       5.61186     13.40649      0.45376         0.516021      0.243473      1.534584
O       5.79549     13.63008     12.78568         0.317526     -0.001309     -0.716125
O       5.84861      1.98705      4.49988         0.022870     -0.117139      0.216009
O       5.97503     13.61925      4.45886        -0.298958     -0.099716     -0.203295
O       5.78823      1.90526      8.65520        -0.017472      0.095714      0.935235
O       5.89795     13.56010      8.55849        -0.037596     -0.032378     -0.161832
O       5.54375      5.86941      0.39785         0.827392     -0.053390     -0.261238
O       5.60764      5.81465     12.91361         0.510807      0.031323     -0.051506
O       5.76532      5.78219      4.55021        -0.012673     -0.012473     -0.180943
O       5.78324      5.61532      8.60966         0.421863      0.685748      1.350173
O       5.87787      9.86729      0.43562        -0.053562     -0.210355     -0.441650
O       5.66850      9.71187     12.85555         0.506603      0.012975     -0.198263
O       5.86687      9.43108      4.54112         0.188527      0.308894     -1.440976
O       5.90340      9.76367      8.61765        -0.175666     -0.398113      0.579704
O       9.85250      1.64647      0.51511        -0.280254      0.538960      0.834334
O       9.76276      1.95076     12.99999        -0.138514      0.071908     -0.640404
O       9.93852     13.61388      0.45200        -0.457153      0.122718     -0.531341
O       9.75082     13.52825     12.92119        -0.237572      0.338029      0.255020
O       9.64152      2.18976      4.74840         0.082518     -0.238680     -1.980027
O       9.66905     13.56735      4.63209         0.211104     -0.322404     -3.066821
O       9.53883      1.66563      8.78098         0.697468      0.526550      0.868581
O       9.59688     13.77615      8.79119         0.135984     -0.084156      0.224333
O       9.67542      5.87593      0.33468         0.084821     -0.203710      0.730971
O       9.75208      5.80090     12.99266        -0.106583     -0.149976      0.642085
O       9.69874      5.73314      4.58026        -0.041490     -0.169718     -0.145603
O       9.59624      6.04565      8.83780         0.163084     -0.599729     -0.629869
O       9.67326      9.71354      0.42848         0.092462     -0.119608      0.285819
O       9.72735      9.73560     12.90964        -0.011659      0.040347     -0.952753
O       9.77105      9.81425      4.59310        -0.228000     -0.356940      0.275159
O       9.54361      9.51609      8.85003         0.404361      0.420770     -0.849126
O       3.90916      2.01363      2.52820        -0.805967      0.113923     -0.089937
O       3.85462      1.93332     15.08551        -0.005899     -0.199474      0.058118
O       3.82488     13.58687      2.74081         0.721520     -0.116655     -0.651261
O       3.92094     13.29680     14.77262        -0.944989      0.583626      0.239605
O      15.59087      2.00617      2.60402         0.267187     -0.442665     -0.272109
O      15.60500      1.88362     14.92036        -0.617652      0.100470      0.120727
O       0.04373     13.80632      2.43140        -0.244354     -0.578643      0.009117
O      15.57016     13.69976     15.02168         0.213417     -0.232286     -0.143095
O       3.93224      1.88261      6.69040        -0.752657     -0.192935     -0.438203
O       3.96780     13.49338      6.53890        -0.747273      0.275798      0.127401
O      15.60539      1.90249      6.57481         0.271596      0.228248      0.262193
O      15.56877     13.60779      6.90323         0.191211     -0.150194     -0.401308
O       3.85740      1.87906     10.89655         0.639968      0.292757     -0.402103
O       3.83501     13.57641     10.74109         1.540669      0.278639      0.049406
O      15.57319      2.00439     10.74864        -0.365178     -0.340450      0.553013
O       0.03765     13.64566     10.66031        -0.574203     -0.222418      0.334956
O       3.76197      5.76031      2.51743         0.418339     -0.055953     -0.124190
O       3.83536      5.99286     14.96375         0.357812     -0.518997      0.370475
O      15.51857      5.96793      2.71474         0.782658     -0.399327     -0.442782
O       0.06428      5.87492     14.84941        -1.042833     -0.456644      0.017726
O       3.83124      5.73078      6.84826        -0.581117      0.169281     -0.634651
O      15.50285      5.66674      6.66981         0.157082      0.178626      0.095177
O       3.76589      5.90661     10.56556         0.623221     -0.461432      0.502371
O      15.42104      5.85299     11.11113         0.844595      0.037484     -0.561935
O       3.85435      9.72216      2.56048         0.075373     -0.083925     -0.058780
O       3.90640      9.81657     14.92200        -0.222939     -0.447028      0.273781
O      15.52921      9.53135      2.45097         0.844593      0.294972      0.175854
O       0.02895      9.68919     15.13571        -1.131638     -0.051160     -0.216959
O       3.91703      9.54085      6.56626        -0.643596      0.288623      0.000764
O      15.57572      9.83863      6.56794         0.061152     -0.584536      0.443533
O       3.87055      9.72811     10.72721         0.519231     -0.159686      0.037547
O      15.60504      9.75878     10.77747        -0.458401     -0.096700     -0.157968
O       7.78806      1.78823      2.48745         0.554463      0.255606      0.317222
O       7.74063      1.81475     15.14090         0.829277      0.283938     -0.301997
O       7.81161     13.70455      2.36073        -0.308564     -0.414440      0.225476
O       7.77836     13.71441     15.03751         0.623886     -0.312131     -0.196266
O       7.74558      2.00808      6.77772        -0.506629      0.047339     -0.353905
O       7.76572     13.47350      6.48614         0.144265      0.120062      0.713935
O       7.71012      1.96737     10.87053         0.378014     -0.314927      0.168472
O       7.77428     13.71646     10.83559        -1.567072     -0.392413     -0.063266
O       7.76256      5.89020      2.32393        -1.469994      0.040693      0.490816
O       7.76819      5.76529     14.99287        -0.245830      0.059376      0.174807
O       7.79251      5.71730      6.62716        -0.707324      0.160256      0.149269
O       7.72366      5.74326     10.91838         0.129708      0.006997     -0.361463
O       7.79027      9.61604      2.49519        -0.133382     -0.039993      0.350432
O       7.79310      9.69438     15.00751         0.347229      0.280200     -0.037030
O       7.74797      9.64832      6.67764         1.063291     -0.084985     -0.365913
O       7.70481      9.70663     10.92918         0.537108     -0.193398     -0.329505
O      11.65095      1.92888      2.62589         0.077668      0.216613      0.350417
O      11.75183      1.97131     15.02466        -0.638632      0.004358      0.171884
O      11.70064     13.67036      2.51803        -0.266821     -0.193287      0.272790
O      11.73718     13.67006     14.92281         0.245272     -0.558713      0.264470
O      11.59130      1.93274      6.74855         0.728453      0.313313     -0.019381
O      11.64085     13.62760      6.64802         0.580300      0.143644     -0.169455
O      11.68643      1.74098     10.76326        -0.440884      0.325316     -0.039380
O      11.71039     13.61064     10.85295        -0.501595      0.307786      0.333509
O      11.62579      5.61725      2.53916         0.469375      0.223274     -0.074012
O      11.69954      5.75350     15.12438        -0.016048     -0.025845     -0.164292
O      11.62079      5.87774      6.68753         0.627790     -0.096422      0.509606
O      11.62673      5.90520     10.91332        -0.863170     -0.207158     -0.048821
O      11.69903      9.88095      2.35158        -0.243833     -0.164106      0.790574
O      11.66675      9.74116     15.04511         1.193098     -0.178796     -0.207471
O      11.64186      9.76595      6.73014        -0.259576     -0.469706     -0.193436
O      11.70075      9.79231     10.82123        -0.691076     -0.025550     -0.015117
O       1.86697      3.91139      2.58698        -0.208902      0.987197     -0.107615
O       1.97474      3.86990     14.60082        -0.208549      1.111236      0.463182
O       2.04037      0.03766      2.41576        -0.055973     -0.207124     -0.086691
O       2.01113     15.57931     15.05680        -0.124121     -0.987068     -0.448508
O      13.73672      3.87662      2.66680        -0.349293      0.014527     -0.191518
O      13.63515      3.85053     14.90666         0.374150      0.385540      0.534554
O      13.61155     15.57669      2.69734        -0.231146      0.520716     -0.135632
O      13.63259     15.58391     14.79718         0.210907      0.202000      0.315446
O       1.93647      3.78466      6.78654        -0.276981      0.114913     -0.540350
O       1.99540     15.52575      6.72620        -0.052462      0.212045     -0.425395
O      13.52165      3.91372      6.80044         0.200877      0.202595     -0.171012
O      13.63190      0.04912      6.72980        -0.064017     -0.644061     -0.547107
O       1.85464      3.86578     10.84573         0.146348      0.499138      0.096893
O       1.95310     15.58635     10.77648        -0.238216     -0.305109      0.193217
O      13.46425      3.86068     10.79642         0.242034     -0.222131      0.169433
O      13.71467     15.55898     10.76004        -0.107783      1.004855      0.744921
O       1.98454      7.77984      2.50657        -0.308438     -0.189904      0.071039
O       1.95099      7.77420     14.96211        -0.206519      0.651952      0.136002
O      13.37722      7.75045      2.35412         0.472052     -0.179049      0.325987
O      13.71203      7.66341     15.16720        -0.410913      1.212899     -0.616911
O       1.81790      7.64127      6.80460        -0.157966      0.818190     -0.355167
O      13.72307      7.79411      6.78767        -0.336578     -0.513554     -0.063259
O       1.87686      7.86630     10.89600        -0.358015     -0.647170     -0.321698
O      13.61093      7.86469     10.92798         0.059031      0.491283     -0.335111
O       1.92989     11.66791      2.51882        -0.388198     -0.607968     -0.185229
O       1.82128     11.65955     15.11930         0.060485      0.733652     -0.502750
O      13.73553     11.67297      2.45465         0.015012      0.358022      0.038833
O      13.69040     11.71376     15.06122        -0.079744     -0.224780     -0.252271
O       1.92631     11.58325      6.71900         0.175683     -0.036882     -0.010750
O      13.58853     11.67217      6.72006         0.390042      0.368711     -0.168921
O       1.93128     11.67666     10.70264        -0.031635     -0.451469      0.343839
O      13.62468     11.73283     10.68083         0.266458     -1.049296      0.358190
O       5.84722      3.84875      2.44201         0.032898      0.773370      0.069709
O       5.70182      3.88338     15.10643         0.615400      0.439946     -0.191061
O       5.70835     15.57982      2.58327         0.384396     -1.027594     -0.342824
O       5.68669     15.45712     15.04422         0.080446      0.066905     -0.102030
O       5.76269      3.84519      6.62447         0.194474     -0.523932     -0.127058
O       5.96468     15.53981      6.54310        -0.484946      0.599718      0.061278
O       5.76944      3.88092     10.82565         0.056676     -0.292754      0.076196
O       5.82699     15.55815     10.62908        -0.124888     -0.202959      0.274509
O       5.74636      7.71903      2.34817         0.079409      0.368434      0.654965
O       5.93367      7.81110     14.94610        -0.562616     -0.466219      0.388738
O       5.81301      7.64719      6.57675         0.452236      0.328053      0.322586
O       5.87066      7.68622     10.61942        -0.101070      0.829891      0.374634
O       5.86808     11.58198      2.61137        -0.070836      1.180610      0.160977
O       6.01131     11.64067     14.84619        -0.106669      0.075880      0.382615
O       5.84317     11.54047      6.46906         0.075639      0.443902      0.139100
O       5.82086     11.65076     10.70729         0.297043      0.426268      0.043471
O       9.55816      3.87637      2.32270         0.065799     -0.891667      0.449439
O       9.65988      3.79746     15.18878         0.494089      0.186175     -0.126537
O       9.73992     15.54448      2.67382         0.248351      0.011255     -0.415326
O       9.88251     15.56177     14.98222        -0.438298      0.105112      0.247193
O       9.71267      3.92566      6.83789         0.261958      0.208422      0.360899
O       9.66562      0.00088      6.50879        -0.104075     -0.512861      0.430759
O       9.78161      3.81951     10.88805        -0.217039      0.086746     -0.409077
O       9.66872     15.53574     11.06500         0.048098      1.154914     -0.176469
O       9.84875      7.74516      2.49524        -0.268969      0.040806     -0.028118
O       9.84620      7.78243     14.98712        -0.786831     -0.264614     -0.175906
O       9.63901      7.72793      6.63660         0.165414      0.815254      0.187103
O       9.79607      7.77704     10.98956        -0.615062      0.087896     -0.134491
O       9.68684     11.61475      2.54590        -0.060215      1.270608      0.124145
O       9.80465     11.63759     14.94315        -0.229886      0.961248      0.561264
O       9.70683     11.63284      6.65159        -0.289914     -0.207470      0.088494
O       9.63499     11.75270     10.93102         0.206187     -1.299738     -0.425819
