  # total energy = -7882.98709454 
CRSYTAL
PRIMVEC
    15.6080000000000005    0.0000000000000000    0.0000000000000000
     0.0000000000000000   15.6080000000000005    0.0000000000000000
     0.0000000000000000    0.0000000000000000   16.6239999999999988
PRESSURE
0.323262 -0.050318 0.598197 -0.032834 0.270053 -0.047355
PRIMCOORD
320 1
Pb       3.88003      3.79809      4.10030        -0.092692      0.578273      0.006745
Pb       3.93479      3.90150     16.58946        -0.334323      0.126596      0.260728
Pb       3.90864     15.54176      4.03587        -0.031092     -0.141119      0.453596
Pb       3.93167     15.57302     16.53069        -0.050483      0.123155      0.321231
Pb       0.02361      3.91382      4.08487         0.145080     -0.040189      0.085928
Pb       0.01324      3.83549     16.60263         0.241580     -0.240951      0.213660
Pb      15.60473     15.49769      4.08233        -0.025819      0.039468      0.456737
Pb      15.59277     15.59747     16.54269         0.176775      0.259391      0.402064
Pb       3.90900      3.83158      8.20519         0.072189      0.314376      0.108148
Pb       3.86000     15.47501      8.14735         0.237393      0.730041      0.431778
Pb      15.52025      3.88490      8.26089         0.353541     -0.231634      0.378858
Pb      15.49981     15.52547      8.26321         0.239711      0.083028     -0.028647
Pb       3.80771      3.81926     12.45656         0.233959      0.009757     -0.097675
Pb       3.91635      0.02793     12.55282        -0.181275     -0.200815     -0.539793
Pb       0.04274      4.04985     12.55844        -0.293095     -0.219019     -0.272904
Pb       0.07825      0.01226     12.55088        -0.486700      0.161340     -0.445909
Pb       3.91141      7.81458      3.97533         0.103830     -0.041019      0.771644
Pb       3.91613      7.79480     16.53008        -0.375533      0.006835      1.029080
Pb      15.45633      7.80171      4.08631         0.908734      0.080791      1.283468
Pb      15.58620      7.72558     16.52854         0.130538      0.044991      0.255290
Pb       3.74931      7.76533      8.30265         1.043683     -0.510527      0.013824
Pb      15.43750      7.69814      8.43651         0.030093      0.493293     -0.188783
Pb       3.92263      7.73867     12.34528        -0.375021      0.196422      0.673946
Pb      15.52284      7.77545     12.42622         0.527615      0.389879      0.070961
Pb       3.86609     11.70711      4.05130        -0.215760     -0.440243      0.109709
Pb       3.82490     11.75037      0.01506        -0.013064     -0.305269      0.465176
Pb      15.54172     11.62184      4.04105         0.197649      0.158638      0.587593
Pb      15.57023     11.64712     16.53287         0.073568      0.510254      0.352037
Pb       3.87453     11.78162      8.36568         0.269547     -0.977675     -0.128372
Pb       0.06205     11.71194      8.24723        -0.594712     -0.068606      0.152137
Pb       3.82761     11.63244     12.39347         0.486006      0.366390      0.422753
Pb      15.60449     11.77748     12.50062         0.007174     -0.328687     -0.322416
Pb       7.79177      3.81996      4.10427        -0.132163      0.262127      0.403204
Pb       7.82056      3.91639     16.55192        -0.359634     -0.064281      0.363607
Pb       7.78951     15.59828      4.16280         0.111280     -0.338350      0.497285
Pb       7.77915      0.05793     16.54895        -0.214912     -0.271886      0.181094
Pb       7.82883      3.78715      8.31249        -0.093133      0.744004     -0.333368
Pb       7.77914      0.03240      8.14695         0.414989     -0.103499      0.508019
Pb       7.85721      3.78744     12.43576        -0.078266      0.116678      0.746183
Pb       7.73760     15.57346     12.33855        -0.041197     -0.316019      0.720975
Pb       7.90241      7.79640      4.15927        -0.707612      0.323263      0.055988
Pb       7.61630      7.65188     16.61225         0.234069      0.397587      0.623700
Pb       7.78699      7.72703      8.19338        -0.499063     -0.259075      0.587401
Pb       7.66528      7.84672     12.41223         0.289112     -0.046565      0.436222
Pb       7.80346     11.69294      4.11448         1.038410     -0.311611      0.511787
Pb       7.73452     11.80548     16.54661         0.417721     -0.519758      0.699177
Pb       7.91897     11.71694      8.33421        -0.422529     -0.370914      0.537907
Pb       7.78916     11.76496     12.40753        -0.391893     -0.255663      0.030121
Pb      11.76274      3.78268      4.14168        -0.053198      0.419903      0.022510
Pb      11.66080      3.92995      0.11779         0.473855     -0.362254      0.186008
Pb      11.66400     15.47906      4.07342         0.797275      0.441397      1.381131
Pb      11.67656     15.59615     16.50300         0.303674     -0.840891      0.690944
Pb      11.71162      3.97163      8.35799        -0.537998     -0.481262      0.276422
Pb      11.78475      0.08670      8.34975        -0.570942     -0.385932      0.285447
Pb      11.70042      3.88700     12.36513        -0.175773     -0.155281      0.518232
Pb      11.47866      0.08923     12.40775         0.939488     -0.055521      0.042977
Pb      11.73161      7.96805      4.24772         0.073233     -0.451573      0.070439
Pb      11.73004      7.78744     16.58261        -0.523115     -0.105065      0.546619
Pb      11.70742      7.69087      8.37754        -0.055966      0.648974     -0.052443
Pb      11.63674      7.94415     12.45623         0.076330     -0.290555      0.883526
Pb      11.86885     11.62479      4.12010        -0.308948      0.046360      0.120566
Pb      11.53660     11.61189     16.55621         0.192937      1.080422      0.381079
Pb      11.67451     11.80245      8.46390         0.664967      0.036020     -0.317618
Pb      11.64165     11.67412     12.45939        -0.248871      0.111531      0.480123
Ti       1.98435      1.85816      2.28295        -0.304703      0.725810     -1.698079
Ti       2.02421      1.92714     14.69676        -1.260029      0.607457     -0.186010
Ti       1.88649     13.61983      2.20301         0.610453     -0.375477     -0.476150
Ti       1.91586     13.66156     14.68681        -0.123421     -0.132415     -0.295870
Ti      13.73660      1.86404      2.27114        -0.243921      1.058926     -0.476196
Ti      13.66534      1.92081     14.69591         1.332896      0.362162     -1.031139
Ti      13.63562     13.68462      2.15256         0.445745     -1.209648     -1.352557
Ti      13.64190     13.65459     14.66038        -0.220343     -0.319368      0.180532
Ti       1.90983      1.93805      6.35072        -0.019980     -0.268806      0.167812
Ti       1.97763     13.54476      6.28002        -0.969077      0.191222     -0.371571
Ti      13.64123      1.95953      6.42489        -0.798239     -0.550527     -0.228687
Ti      13.58239     13.64288      6.39341        -0.100681     -0.423373      0.366834
Ti       1.87098      1.93812     10.51535         0.631631     -0.267883      0.621616
Ti       1.92226     13.67301     10.47061         0.043733     -0.138067      1.795302
Ti      13.68082      1.98338     10.55718        -0.119195     -0.292196      0.934488
Ti      13.58003     13.70590     10.66101        -0.018901      0.624130     -1.084749
Ti       1.95545      5.83928      2.21518        -0.040308     -0.327287     -0.730800
Ti       1.85380      5.91160     14.74308         0.535812     -0.578796     -0.790890
Ti      13.67977      5.81913      2.26558        -0.709581     -0.268867      0.297738
Ti      13.55804      5.78562     14.74134         0.675342     -0.091287     -0.757779
Ti       1.76199      5.84033      6.40841         1.557570     -0.326783     -0.483565
Ti      13.53452      5.78252      6.40024         0.208293      1.494734     -0.331907
Ti       1.96793      5.81988     10.50363        -0.644073      0.787146      0.525732
Ti      13.55689      5.96093     10.68865         0.240509     -1.064238      0.156212
Ti       1.90371      9.71385      2.20028         1.276018      0.090151     -1.202717
Ti       1.91830      9.78186     14.66045         0.784456     -0.185204      0.103279
Ti      13.69747      9.66864      2.12787        -0.128850      0.846884      1.670225
Ti      13.57932      9.77500     14.75607         0.219585      0.222127     -1.446637
Ti       1.97978      9.66074      6.50842        -0.472972      0.061678     -0.980544
Ti      13.68100      9.77456      6.45730        -0.476509     -0.268924      0.078743
Ti       1.94652      9.78127     10.52539        -1.140721     -0.438279      0.130080
Ti      13.59804      9.86930     10.61904         0.685226     -0.740951     -0.879348
Ti       5.91035      1.88576      2.21513        -1.121946      0.492057     -0.217417
Ti       5.94027      1.93050     14.66633        -0.509097     -0.771974      0.147291
Ti       5.91737     13.63002      2.25457        -0.686557     -0.471747     -0.625628
Ti       5.81430     13.53621     14.70297         0.289940      1.232130      0.199099
Ti       5.81983      1.90621      6.35468         0.556341      0.144286      0.351916
Ti       5.85480     13.47797      6.35199         0.480132      1.150348      1.444724
Ti       5.80339      1.85420     10.51227        -0.454717      0.806411     -0.690944
Ti       5.78057     13.64991     10.47839         0.278943     -0.937519      1.495801
Ti       5.86966      5.80131      2.32233        -0.631690      0.345434     -0.118072
Ti       5.78525      5.80034     14.67887        -0.277589     -0.110926      0.115183
Ti       5.75189      5.77669      6.27940         0.142775      0.912827      0.153860
Ti       5.84109      5.67671     10.59098        -0.236268      0.896093     -1.183627
Ti       5.92168      9.78114      2.23504        -0.487257     -0.819686     -0.440976
Ti       5.76933      9.73129     14.70693         0.235545      0.064010     -0.197536
Ti       5.90984      9.70438      6.42049        -0.478329     -1.330243      0.453957
Ti       5.83370      9.69905     10.58230         0.581057      0.437662     -1.173829
Ti       9.73947      1.90445      2.24965         1.173966      0.446503     -0.378168
Ti       9.88318      1.95336     14.81691        -1.496841      0.848350     -1.356198
Ti       9.80251     13.61341      2.30642        -0.036261     -0.735937     -0.822352
Ti       9.72034     13.71963     14.64988         0.057999     -2.130289     -0.744572
Ti       9.79302      2.00714      6.39453         0.171077     -0.252767      1.136411
Ti       9.73933     13.67307      6.44230         0.928891      0.263811     -0.395784
Ti       9.69553      1.95638     10.58586         0.701454     -0.558959     -1.690990
Ti       9.74077     13.58892     10.55730        -0.328473      0.965691     -1.234701
Ti       9.74607      5.84189      2.26527         0.580594      0.273276      0.489293
Ti       9.78809      5.85096     14.77694        -0.716316     -0.395978     -1.164638
Ti       9.70168      5.89070      6.29388         0.192142     -1.186362      1.995766
Ti       9.64865      5.88230     10.72314         0.117771     -0.129892     -1.415661
Ti       9.81121      9.67657      2.15187        -0.752444      0.540698      0.944606
Ti       9.63037      9.69495     14.70220         0.795724      0.328135      0.284249
Ti       9.84768      9.76804      6.49637         0.148902      0.387362     -0.785473
Ti       9.73615      9.70909     10.52241        -0.100039     -0.202941     -0.430114
O       1.88896      1.99638      0.45966         0.419504     -0.532807      0.504291
O       1.93133      1.85919     12.88445         0.195623      0.046946      0.377680
O       2.00774     13.64544      0.41828        -0.156156      0.065986      0.036633
O       1.83494     13.78081     12.89445         0.160082     -0.494428      0.372730
O      13.90475      2.04798      0.50226        -0.887305     -0.741674      0.368526
O      13.73111      1.85556     12.89925        -0.277767      0.352261      1.042414
O      13.63941     13.60803      0.33926        -0.132655      0.433396      1.027052
O      13.76947     13.64039     12.86767        -0.303247      0.014521      0.105260
O       2.00096      1.84758      4.57405        -0.186550      0.154062      0.056319
O       1.97068     13.53875      4.47572        -0.251229      0.306546      0.801473
O      13.62160      1.85656      4.66764         0.113512      0.395302     -0.587081
O      13.58672     13.60524      4.60998         0.333631      0.083658      0.114587
O       1.85543      1.94633      8.78849         0.214341      0.316718     -1.065706
O       2.09899     13.43161      8.73362        -0.251009      0.606886     -0.477495
O      13.56861      2.01317      8.78817         0.516049     -0.222770     -0.282399
O      13.38396     13.62802      8.84127         0.852648      0.342412      0.584637
O       1.79544      5.70400      0.40773         0.237583      0.777760      0.433497
O       1.78261      6.07395     12.93990         0.495659     -0.529617      0.358644
O      13.77760      5.84488      0.51472        -0.216470      0.092691     -0.968471
O      13.56963      5.80908     12.92638        -0.239719      0.118160      0.845895
O       2.06187      5.82715      4.64360        -0.767304      0.050476      0.211824
O      13.55829      5.91244      4.64986         0.067734     -0.269508     -0.277936
O       1.82513      5.75050      8.76051         0.185929     -0.198024     -0.617639
O      13.46923      6.06501      8.92678         0.704059     -0.705234     -0.698876
O       2.02949      9.80923      0.40509        -0.572001     -0.249940      0.915952
O       2.03996      9.80964     12.87556        -0.264997     -0.360648      0.442405
O      13.82167      9.68397      0.40058        -0.331287      0.027447     -0.864771
O      13.68989      9.76739     12.93314        -0.454554      0.173069      0.977568
O       1.94470      9.58389      4.74604         0.117206      0.287446     -0.514504
O      13.61097      9.72406      4.63615         0.062319      0.338205     -0.157298
O       1.76014      9.84833      8.74957         0.686143      0.147137     -0.080202
O      13.52454      9.68403      8.83723         0.413921      0.256439      0.386667
O       5.88127      1.87924      0.44478        -0.033921      0.076889      0.251834
O       5.78213      1.75816     12.91529         0.143687      0.507307     -0.347636
O       5.86316     13.43903      0.48397         0.040405      0.643720      0.096777
O       5.91759     13.62897     12.96238        -0.031310      0.009034     -0.317511
O       5.88418      1.83142      4.59360        -0.051874      0.219821     -0.806118
O       6.05856     13.63762      4.66066        -0.184794     -0.216193     -1.368974
O       5.88301      1.94570      8.69883        -0.156511     -0.084721      0.669471
O       5.78026     13.58549      8.74843        -0.322104     -0.049223     -1.134082
O       5.87489      5.65526      0.53778         0.155354      0.391406     -1.045654
O       5.59198      5.84838     12.93488         0.806058     -0.079906      0.593740
O       5.78595      5.86023      4.45869        -0.209924     -0.469993      1.089950
O       5.81989      5.76018      8.80646        -0.029286     -0.312078      0.801829
O       5.85314      9.78744      0.44665         0.386518     -0.024865      0.677662
O       5.79647      9.66328     12.89514         0.082446      0.040066      0.865851
O       5.89890      9.55430      4.67576         0.103256      0.749577     -0.820278
O       5.92397      9.62749      8.81850        -0.256992      0.272159      0.100066
O       9.78544      1.82436      0.43013         0.092852      0.044879      0.715601
O       9.78960      2.03180     13.02005         0.059411     -0.451548      0.207644
O       9.92476     13.70541      0.52960        -0.394505      0.317988     -0.023877
O       9.59640     13.44553     12.83910         0.262179      0.862961      0.898648
O       9.92605      2.08265      4.65233        -0.493562     -0.118071     -1.422544
O       9.80191     13.63280      4.59922        -0.143253     -0.310575      0.326529
O       9.77235      1.88881      8.76475        -0.667242      0.111461      1.069495
O       9.73927     13.79670      8.73246         0.102516     -0.473924      1.088434
O       9.58977      6.09592      0.51533         0.387483     -0.842061     -0.359984
O       9.73311      5.60822     13.01668         0.183435      0.652678      0.132221
O       9.92464      5.89033      4.59119        -0.639932     -0.554755     -0.924855
O       9.50481      5.90038      8.94199         0.395085     -0.023914      0.251310
O       9.68060      9.66088      0.40573         0.666789     -0.088814     -0.153449
O       9.81317      9.76935     12.94774        -0.329563      0.298914      0.205431
O       9.83704      9.87478      4.66994         0.048073     -0.395317      0.705021
O       9.75665      9.45340      8.75169        -0.150285      0.669502      0.158518
O       3.92085      1.77367      2.52360         0.269568      0.497174      0.069186
O       3.87198      1.90991     14.98488         0.119078      0.131593      0.149109
O       3.93388     13.50353      2.50213         0.172784      0.390498      0.330634
O       3.94550     13.59780     15.02213        -0.670426      0.580080     -0.196756
O       0.08784      1.74215      2.61315        -0.841927      0.563695      0.268743
O       0.02936      1.96388     15.05662        -0.187632     -0.462336     -0.418435
O      15.60705     13.64157      2.41768        -0.038124      0.200025      0.465163
O      15.58757     13.58732     14.99441         0.471805      0.180468      0.001444
O       3.88738      1.94088      6.62644        -0.187555     -0.002857      0.193561
O       3.88713     13.65313      6.53036         0.387001     -0.119882      0.420107
O      15.51035      2.00629      6.67755         1.038098     -0.452271      0.278200
O       0.02463     13.63545      6.71606        -0.002603      0.332453     -0.051749
O       3.87745      1.93450     10.87947         0.213317      0.154852     -0.022423
O       3.88222     13.63034     10.95062         0.068848     -0.217184     -0.561301
O       0.03475      1.94106     10.81611        -0.505997     -0.006223      0.195354
O      15.49232     13.64546     10.72753         1.431449     -0.265786      0.052001
O       3.91799      5.81154      2.49185        -1.136787     -0.168773     -0.010909
O       3.79734      5.87238     15.08251         1.078488     -0.513189     -0.137111
O      15.60687      5.95746      2.66286         0.310003     -0.905471     -0.137260
O      15.49470      5.85763     14.90955         0.150111      0.688077      0.399209
O       3.85423      5.70996      6.75440        -0.316233      0.481831     -0.090014
O      15.47406      5.75617      6.69662         0.497695      0.206171      0.217166
O       3.90768      5.88243     10.98686        -0.759816     -0.523497     -0.952198
O      15.51554      5.85347     10.92853         0.085966      0.224636     -0.192282
O       3.97651      9.83545      2.53758        -0.370389     -0.308426      0.119881
O       3.93733      9.69258     15.13837         0.093411      0.525191     -0.843880
O       0.06423      9.72993      2.59268        -1.071740     -0.250452     -0.323089
O       0.07310      9.72120     14.96362        -0.836966      0.091622      0.012074
O       3.85310      9.55357      6.80855        -0.029083      0.719614     -0.005692
O      15.49223      9.83677      6.69362         1.201132     -0.088350      0.461738
O       3.90293      9.82577     10.78268        -0.441702     -0.621701     -0.162454
O      15.58977      9.91170     10.87059        -0.396578     -0.420409      0.099587
O       7.82765      1.92390      2.51641         0.499881     -0.184886      0.196728
O       7.83114      1.97147     15.03945         0.008534     -0.272772     -0.079949
O       7.82252     13.70605      2.55656         1.127791     -0.236944     -0.025342
O       7.76968     13.70292     15.19038         0.291030     -0.028194     -0.775451
O       7.82450      2.05616      6.63094        -0.134425     -0.465600      0.067729
O       7.86302     13.48988      6.82874        -1.263764      0.223891     -0.695533
O       7.74158      1.87090     10.96294        -0.007462      0.377910     -0.501413
O       7.77790     13.56276     10.81150        -0.496128      0.237697     -0.016405
O       7.73792      5.73933      2.63909         1.586705      0.390984      0.004846
O       7.77846      5.74692     15.04195        -0.196469      0.454811     -0.266566
O       7.66880      5.70339      6.68868         1.807095      0.474964     -0.607018
O       7.72283      5.74749     11.04223         0.163884      0.367609      0.186122
O       7.89626      9.61720      2.55177        -0.320284      0.601323      0.107199
O       7.80835      9.66079     15.05310        -0.570862     -0.056499     -0.500609
O       7.79089      9.74089      6.75964         0.473762      0.161817     -0.267130
O       7.89814      9.77029     10.92049        -1.102778     -0.118612      0.096735
O      11.82017      2.07104      2.57228        -0.801860     -0.764433     -0.653459
O      11.73897      1.92834     15.05504         0.410920     -0.176597      0.182449
O      11.80745     13.65688      2.54165        -1.178054     -0.088188      0.101229
O      11.72274     13.63808     14.86422        -0.699839      0.330260      0.203436
O      11.68023      1.99801      6.83855         0.505742     -0.508141     -0.413963
O      11.68540     13.75937      6.78607        -0.307821     -0.511374     -0.553253
O      11.64752      1.91773     10.85633         0.161532     -0.007199      0.285219
O      11.59868     13.74608     10.91233         0.311592     -0.079194      0.443444
O      11.73870      5.78073      2.45952        -0.352277      0.081943     -0.233686
O      11.66836      5.74367     15.25400         0.565184      0.139856     -0.232805
O      11.67064      5.84151      6.83208        -0.422795      0.089367     -0.255267
O      11.53835      5.78079     10.84598         1.435925      0.199533      0.505456
O      11.82344      9.70023      2.54008        -0.743082      0.159911     -0.580662
O      11.69029      9.89535     15.03856         0.097814     -0.701422     -0.126753
O      11.71453      9.77169      6.75948        -0.617582     -0.266206     -0.140984
O      11.62716      9.74016     10.94382         0.708891     -0.060358      0.012562
O       1.89106      3.85150      2.46497         0.164866     -0.053270      0.889144
O       1.87025      3.96256     14.88045         0.378040     -0.632439     -0.043032
O       1.99627     15.52522      2.59283        -0.029306     -0.203837     -0.223246
O       1.88059     15.58117     14.98465         0.480378      0.157017      0.182857
O      13.76078      3.89767      2.59586         0.423148     -0.292997      0.164021
O      13.71333      3.85036     15.05930        -0.748277      0.603908     -0.244894
O      13.66730     15.56289      2.54453         0.056596      0.396781     -0.175466
O      13.71068     15.59264     15.04852        -0.222066      0.115180     -0.136844
O       1.83461      3.86539      6.64963         0.132889     -0.373057      0.211798
O       1.96119      0.01880      6.84189        -0.563332     -0.503934     -0.828079
O      13.57468      3.91318      6.75674        -0.039222     -0.172466     -0.059995
O      13.59884     15.58205      6.76553         0.591044      0.391049      0.058214
O       1.95398      3.98565     10.91513        -0.065780     -1.175652      0.197932
O       2.03974     15.53949     10.77526        -0.609979      0.256869     -0.176239
O      13.67675      3.88105     10.94008        -0.294916      0.310523     -0.226728
O      13.64357      0.05103     10.88178        -0.148253     -0.453719     -0.137156
O       1.91736      7.74052      2.45602         0.415378      0.657797     -0.030077
O       2.05625      7.87396     15.07564        -0.867842     -0.562647     -0.155560
O      13.70056      7.79953      2.62395        -0.363822      0.278293     -0.765840
O      13.46918      7.80568     15.07864         0.785693     -0.224331     -0.474636
O       1.76134      7.74487      6.89654         0.240218     -0.265038     -0.258964
O      13.65017      7.82125      6.79000        -0.193740     -0.445803     -0.153914
O       1.85944      7.78214     10.65439         0.326054      0.735420      0.565998
O      13.58854      7.85568     11.00722        -0.010399     -0.375369     -0.315299
O       1.91950     11.63127      2.48849         0.021917      0.350446      0.395186
O       2.01271     11.76747     15.05020        -0.290357     -0.840445     -0.558840
O      13.74287     11.71161      2.49728        -0.209494     -0.738519     -0.046602
O      13.65806     11.71558     15.04419         0.180326     -0.616899     -0.206267
O       1.92738     11.67416      6.63190         0.383294      0.279255      0.182628
O      13.60380     11.74453      6.77098        -0.186161      0.070524     -0.128914
O       1.96695     11.68862     11.01384        -0.235356      0.784753     -0.835561
O      13.43120     11.70911     10.88461         0.438370      0.504697      0.096173
O       5.78702      3.81670      2.57756         0.292634     -0.839354      0.164944
O       5.79984      3.79517     15.06625        -0.001639      1.290526     -0.400266
O       5.89274     15.50922      2.55489        -0.047954      0.839774     -0.058791
O       5.78745      0.03748     15.04433         0.377057     -0.817961      0.239276
O       5.88100      3.87086      6.64472        -0.782267     -0.596548     -0.126132
O       5.92703     15.54793      6.64015        -0.219814     -0.062249      0.156584
O       5.85786      3.82257     10.93691        -0.366876     -0.364305     -0.071457
O       5.77924     15.58036     10.80030         0.293806     -0.477947      0.059905
O       5.88157      7.77256      2.52537         0.130845      0.451643     -0.342254
O       5.80975      7.73111     15.08617         0.213126     -0.080139     -0.477850
O       5.80151      7.71846      6.67881         0.114705     -0.152126      0.183740
O       5.92422      7.76247     10.87607        -0.335073      0.044717      0.185552
O       5.98813     11.71229      2.73992        -0.257183     -0.751446     -0.634747
O       5.84773     11.66709     15.03278         0.360811     -0.551771     -0.423965
O       5.73306     11.61404      6.74334         0.197751      0.506260     -0.360956
O       5.82018     11.65529     10.90891         0.122713      0.447153     -0.242508
O       9.76187      3.91876      2.48632        -0.140394     -0.732223     -0.028297
O       9.82684      3.86368     15.07928        -0.121257      0.019419      0.900357
O       9.88870      0.03211      2.70101        -0.898810      0.190709     -0.954410
O       9.72498     15.54754     14.92981         0.317872      1.062599      0.347068
O       9.89505      3.87265      6.83525        -0.958325      1.039488     -0.429268
O       9.63057     15.57878      6.58947         0.025639      0.345477      0.042653
O       9.71060      3.82064     10.92934        -0.434807      0.466300     -0.161194
O       9.63293      0.01243     10.95415         0.279186     -0.243916      0.011962
O       9.81702      7.78285      2.71132         0.012065      0.137839     -0.515890
O       9.99457      7.75788     14.91690        -0.748190      0.355294     -0.013652
O       9.78706      7.72107      6.63849        -0.453355      0.601586     -0.107840
O       9.77015      7.81838     11.08907        -0.723646     -0.740116     -0.446922
O       9.84575     11.66614      2.43200        -0.209702      0.162122      0.238969
O       9.70086     11.78975     15.05365        -0.102384     -0.811883      0.128124
O       9.81816     11.69444      6.98043        -0.202403     -0.333386     -0.820558
O       9.84320     11.67723     10.67236        -0.284612      0.051774      0.200225
