  # total energy = -7889.27120852 
CRSYTAL
PRIMVEC
    15.6080000000000005    0.0000000000000000    0.0000000000000000
     0.0000000000000000   15.6080000000000005    0.0000000000000000
     0.0000000000000000    0.0000000000000000   16.6239999999999988
PRESSURE
-1.4154 -1.32576 -0.155577 -0.014719 -0.006893 0.005487
PRIMCOORD
320 1
Pb       3.89367      3.89040      4.12915        -0.288363      0.133940      0.108622
Pb       3.89839      3.90067     16.61224         0.022442      0.049485     -0.203288
Pb       3.88174     15.59011      4.11927         0.137993     -0.124665     -0.024552
Pb       3.87282     15.58829     16.59658        -0.059326     -0.145256     -0.031027
Pb      15.59498      3.87762      4.12051         0.315927      0.164815      0.277704
Pb      15.57941      3.87809     16.60145         0.024297      0.027761     -0.146843
Pb      15.57973     15.58961      4.10882         0.134754      0.073758      0.451840
Pb      15.58173     15.58387     16.60018         0.014541     -0.019354     -0.318983
Pb       3.86912      3.88205      8.28907        -0.248387     -0.197859     -0.022954
Pb       3.88468     15.59601      8.29267        -0.233162     -0.032566     -0.247619
Pb      15.58427      3.87775      8.28144         0.245031     -0.091951     -0.091941
Pb      15.60294     15.58868      8.27616         0.103991     -0.154484      0.024779
Pb       3.88591      3.88758     12.43335         0.060030      0.047719     -0.214295
Pb       3.87691     15.57745     12.42330         0.164525     -0.076714      0.116385
Pb      15.58408      3.87315     12.44235         0.404754     -0.419164     -0.327592
Pb      15.58120      0.00502     12.45088         0.008859      0.074464     -0.154099
Pb       3.87961      7.79011      4.14560        -0.406919     -0.349991     -0.049129
Pb       3.87443      7.78047     16.60538         0.155709     -0.061125     -0.465964
Pb       0.00050      7.79079      4.13523         0.035740     -0.067934     -0.249450
Pb      15.59442      7.78197     16.60139        -0.237396      0.181243      0.145113
Pb       3.90260      7.77728      8.26103        -0.230449      0.058796      0.147227
Pb      15.57388      7.78557      8.30199         0.113846     -0.109601     -0.175725
Pb       3.88431      7.79189     12.44353         0.204282     -0.053542     -0.115644
Pb      15.59373      7.79085     12.44987        -0.025447      0.325634      0.003677
Pb       3.87851     11.68356      4.12400         0.107320      0.238833     -0.066123
Pb       3.88662     11.67517     16.58361        -0.229209      0.070594     -0.120092
Pb      15.58751     11.68296      4.12514         0.215493     -0.276334     -0.069000
Pb      15.58574     11.69784     16.58975         0.037831     -0.358053      0.080535
Pb       3.87690     11.68269      8.26933        -0.416704     -0.031471      0.044849
Pb      15.58524     11.67806      8.28822         0.189801      0.363672      0.213147
Pb       3.89860     11.68589     12.43083        -0.089773      0.097484     -0.211600
Pb      15.60598     11.67365     12.42669        -0.064749     -0.050240     -0.223998
Pb       7.79332      3.87383      4.13327         0.020248      0.050910     -0.087644
Pb       7.79399      3.89229     16.61237         0.089551      0.302169     -0.112985
Pb       7.79030     15.57637      4.11384        -0.095544      0.036159      0.058529
Pb       7.79570     15.60726     16.60502         0.186713     -0.097441      0.020204
Pb       7.76568      3.89119      8.28499         0.146791      0.055925      0.043659
Pb       7.78850     15.58194      8.29233        -0.224992      0.133781     -0.273325
Pb       7.77860      3.87717     12.43843        -0.354477     -0.038864     -0.294517
Pb       7.77811     15.58687     12.44619        -0.298767     -0.006880     -0.120040
Pb       7.77943      7.79034      4.13157         0.060234     -0.071764     -0.103900
Pb       7.79850      7.80398     16.60054        -0.216133     -0.169901     -0.168515
Pb       7.78711      7.78287      8.28192        -0.012000     -0.018503     -0.107355
Pb       7.80286      7.76775     12.42003        -0.486505     -0.051484      0.323519
Pb       7.80676     11.68543      4.14614        -0.427481      0.034983     -0.337000
Pb       7.77880     11.68505     16.60582         0.058454     -0.202251     -0.239507
Pb       7.76878     11.69360      8.26697         0.211084     -0.140545     -0.009303
Pb       7.77873     11.66770     12.43471        -0.175973      0.031227      0.089193
Pb      11.69203      3.89158      4.13666        -0.164751     -0.057263      0.215019
Pb      11.69696      3.90304     16.60906        -0.210255     -0.138240     -0.382496
Pb      11.66521     15.58219      4.12491        -0.109007      0.069100     -0.367224
Pb      11.67490     15.58470     16.60828         0.014660      0.043859     -0.182095
Pb      11.70250      3.89266      8.28411        -0.249784      0.351117      0.039312
Pb      11.68673     15.60369      8.27547         0.041436     -0.334057      0.304529
Pb      11.70760      3.87853     12.45000        -0.372558     -0.399243     -0.053527
Pb      11.70925     15.58406     12.43959         0.031189      0.049402     -0.198807
Pb      11.68577      7.75140      4.11632         0.222204      0.364548     -0.031397
Pb      11.65760      7.78356     16.59775         0.156213     -0.018592      0.112185
Pb      11.67609      7.80161      8.27209         0.138217      0.019651     -0.364856
Pb      11.67403      7.78456     12.45445         0.080145      0.433256      0.129497
Pb      11.67294     11.66022      4.14133        -0.071993     -0.254117     -0.492882
Pb      11.69953     11.69684     16.59165        -0.146481     -0.275379     -0.027041
Pb      11.72035     11.70601      8.28990        -0.065126     -0.234941      0.130873
Pb      11.68204     11.70069     12.44184         0.074576     -0.086462     -0.592382
Ti       1.92945      1.95683      2.20982         0.088920     -0.097342      0.153266
Ti       1.91911      1.96298     14.70319         0.234593     -0.729351     -1.100701
Ti       1.88965     13.66357      2.21843         1.080221     -0.366173     -0.503940
Ti       1.89002     13.63425     14.70256         0.348409      0.014511      0.853850
Ti      13.62971      1.93456      2.23133         0.007423     -0.514985      0.515699
Ti      13.65808      1.91588     14.65857        -0.728098     -0.368721      0.095235
Ti      13.66461     13.62575      2.20179        -0.854953      0.100341      0.397461
Ti      13.61828     13.60780     14.66373         0.253538      0.465869      0.904623
Ti       1.91681      1.88450      6.36655         0.077367      0.516011     -0.053580
Ti       1.94851     13.63474      6.38851        -0.116389     -0.150529      0.317909
Ti      13.58512      1.95327      6.39198         0.942582     -0.087979     -0.135676
Ti      13.60370     13.65285      6.37301         0.772094     -0.151087      0.364317
Ti       1.96545      1.87456     10.54512        -0.576566      0.899770     -0.775254
Ti       1.89746     13.62042     10.54281         0.754175     -0.097888     -0.911562
Ti      13.60029      1.93948     10.48520         0.681656     -0.492820      1.020124
Ti      13.64191     13.64895     10.54299        -0.037415     -0.157541     -0.185591
Ti       1.90200      5.84098      2.18845         0.191659      0.329280      1.235574
Ti       1.92396      5.83303     14.66285         0.681407      0.437738     -0.244907
Ti      13.59342      5.77559      2.25767         0.505011      1.336301      0.045071
Ti      13.64895      5.82925     14.68038         0.000096      0.320495      1.227178
Ti       1.93442      5.81566      6.41339        -0.260659     -0.083925     -0.462772
Ti      13.64808      5.83350      6.42365        -0.002120      0.286543     -0.651789
Ti       1.85189      5.87232     10.54415         1.178171     -0.756329     -0.632092
Ti      13.59180      5.83748     10.59812         0.317752      0.214374     -1.766066
Ti       1.95777      9.74905      2.21369        -0.791523     -0.470408      0.220397
Ti       1.89438      9.73140     14.70066         0.479179     -0.096345      0.588008
Ti      13.62240      9.75038      2.17701         0.485859     -0.893828     -0.670462
Ti      13.64112      9.74419     14.70943        -0.081897     -0.539470      0.838047
Ti       1.91870      9.72603      6.37992         0.202618     -0.232818      0.135691
Ti      13.67462      9.71724      6.37544        -0.707029     -0.251491      0.393462
Ti       1.91451      9.71759     10.53179         0.488513      0.613817     -0.879535
Ti      13.63898      9.73674     10.48473        -0.118887      0.499941      0.623750
Ti       5.83581      1.93667      2.22681        -0.084510     -0.089975     -0.300675
Ti       5.82016      1.89468     14.73102        -0.359624      0.346104     -1.126471
Ti       5.83159     13.63630      2.21618        -0.328335     -0.360152      0.888032
Ti       5.83672     13.62734     14.68189        -0.262596      0.033382     -1.128844
Ti       5.82553      1.95161      6.37415        -0.122495     -0.813839      0.536600
Ti       5.85360     13.63673      6.39841        -0.694097      0.550350     -2.127444
Ti       5.83896      1.89607     10.51316        -0.398981      0.508304      0.180815
Ti       5.84666     13.62344     10.45918        -0.877023      0.150430      2.653794
Ti       5.78771      5.84747      2.20882         0.033609     -0.338579      0.234780
Ti       5.84088      5.80232     14.66769        -0.508140      0.879662      0.950755
Ti       5.83698      5.78915      6.38537        -0.482825      0.406556     -1.026720
Ti       5.78624      5.84378     10.50245         0.095910     -0.386720      0.327422
Ti       5.81903      9.70200      2.17708         0.052998      0.556986      1.180450
Ti       5.82537      9.75691     14.66834        -0.248191     -0.914459     -0.261563
Ti       5.83684      9.73962      6.34699        -0.234418     -0.144508      0.056712
Ti       5.85575      9.75399     10.52579        -0.777769     -0.474635      0.569665
Ti       9.75241      1.95229      2.22254        -0.376378     -0.645780      0.651715
Ti       9.71068      1.90148     14.68323         0.926918      0.148426      0.336811
Ti       9.72698     13.61319      2.20505         0.169346      0.360040      1.159152
Ti       9.71713     13.61221     14.67846         0.355880      0.287571      1.186751
Ti       9.71723      1.90693      6.41483        -0.357326      0.769932     -1.483654
Ti       9.71879     13.62772      6.34667        -0.179388     -0.093035     -0.055676
Ti       9.70360      1.92500     10.53863         0.334310     -0.030996      1.692379
Ti       9.67732     13.64897     10.54948         0.906192     -0.268829     -0.063941
Ti       9.69935      5.80917      2.22981         0.207535      0.280214     -0.863104
Ti       9.74071      5.84056     14.68712        -0.150992     -0.151558      0.367010
Ti       9.71321      5.86596      6.36740         0.671292     -0.254370     -0.486342
Ti       9.74106      5.86365     10.52785        -0.925541     -0.570828      0.132437
Ti       9.70492      9.69762      2.22198         0.462107      0.285001      0.405387
Ti       9.72656      9.74676     14.66740        -0.172133     -0.322133     -0.112095
Ti       9.71299      9.74187      6.40247         0.783762     -0.464563     -0.166011
Ti       9.70201      9.70117     10.56531         0.515018      0.942030      0.049612
O       1.91141      1.99192      0.42572         0.025161     -0.150293     -0.248514
O       1.88467      1.87587     12.86643         0.158180      0.306376      1.224445
O       1.97106     13.66338      0.40719        -0.225458     -0.132396      0.760846
O       1.94115     13.65100     12.97100        -0.078850     -0.129070     -1.325896
O      13.61449      1.91299      0.47157         0.134561      0.043141     -0.002937
O      13.58888      1.90818     12.88628         0.155913      0.187376     -0.110264
O      13.63152     13.67876      0.44283         0.179737     -0.167242     -0.095973
O      13.68192     13.64840     12.93576        -0.213624     -0.275363     -1.141085
O       1.98531      1.95028      4.58695        -0.280448     -0.245689     -0.018382
O       1.84893     13.60849      4.61025         0.236522     -0.011811     -0.262249
O      13.62849      2.01050      4.61143        -0.100228     -0.133850      0.347735
O      13.68538     13.68389      4.60189        -0.177029     -0.408128      0.183699
O       1.96953      1.91683      8.71282        -0.091901      0.032737      0.596971
O       1.94316     13.62286      8.75389         0.118439      0.161897      0.244059
O      13.67287      1.95752      8.73800        -0.207280     -0.142521     -0.817333
O      13.62146     13.60345      8.77504        -0.064035      0.385730     -0.545756
O       1.91639      5.80777      0.44476        -0.043949     -0.191944     -0.854419
O       1.97129      5.85743     12.87700        -0.275657      0.005687      0.014496
O      13.68910      5.83113      0.49278        -0.122502     -0.332479     -0.336831
O      13.62781      5.87295     12.93773        -0.055235     -0.188074     -1.283361
O       1.95280      5.88155      4.63845        -0.041221     -0.332651     -0.370495
O      13.62250      5.83570      4.62185        -0.087323     -0.068595     -0.151727
O       1.85760      5.88168      8.71948         0.084595     -0.253746      1.058343
O      13.63016      5.82331      8.76373        -0.062700      0.041355      1.363454
O       1.99697      9.70512      0.45086        -0.268424      0.162458     -0.603353
O       1.96990      9.79710     12.94179        -0.328505     -0.200501     -0.539132
O      13.76552      9.75808      0.35076        -0.713944     -0.016376      1.021669
O      13.69693      9.76003     12.95426        -0.143346     -0.047552     -0.724035
O       1.94204      9.68323      4.59947        -0.195009      0.194670      0.064360
O      13.58271      9.68619      4.61894         0.243321      0.354811     -0.092777
O       1.89212      9.75849      8.73082         0.193183     -0.398342      0.539291
O      13.67283      9.73440      8.73410        -0.196070     -0.032085     -0.487551
O       5.77565      1.88899      0.42059         0.467321      0.128303      0.545912
O       5.82824      1.93742     12.89581         0.159603     -0.148104      1.080270
O       5.77184     13.63139      0.44656         0.321339     -0.098151     -0.510660
O       5.84147     13.67928     12.86279         0.133224     -0.188425      0.936687
O       5.87121      1.89188      4.63095        -0.103920      0.207943     -0.926701
O       5.87562     13.60750      4.53340        -0.037098      0.017876      1.207370
O       5.83370      1.91241      8.72663         0.029261      0.003756      0.057307
O       5.88659     13.65268      8.75716         0.077724     -0.138389     -1.984765
O       5.77280      5.84610      0.44095         0.149067     -0.168092      0.025659
O       5.76997      5.82238     12.92736         0.266831     -0.016906     -0.798326
O       5.79282      5.79181      4.54563         0.337893      0.191687      1.392759
O       5.82532      5.75283      8.72660         0.187821      0.220863     -0.506368
O       5.87512      9.76799      0.44687        -0.232935      0.025829     -0.822141
O       5.81671      9.77023     12.87569        -0.016921     -0.147221      0.203271
O       5.90534      9.69425      4.58471        -0.368347     -0.021085      0.200901
O       5.81701      9.75299      8.76648         0.384155      0.039529     -0.633069
O       9.74362      1.81242      0.46585        -0.065785      0.404687     -0.596298
O       9.74823      1.90348     12.90336        -0.045910      0.135586      0.224781
O       9.74798     13.65129      0.47292        -0.045337     -0.076814     -1.230571
O       9.74050     13.64638     12.95238         0.084886     -0.089981     -1.382486
O       9.74890      1.97971      4.58794        -0.029665     -0.038747      1.521863
O       9.71720     13.62896      4.55943         0.101718     -0.039507      0.949766
O       9.77802      1.90641      8.83932        -0.259598     -0.162741     -2.396952
O       9.71374     13.69531      8.77531        -0.098713     -0.168716     -0.099171
O       9.74806      5.83527      0.40659        -0.031029     -0.043868      0.609056
O       9.80726      5.84129     12.89890        -0.295732     -0.095217      0.163704
O       9.65976      5.81968      4.56069         0.447504      0.005906      0.448291
O       9.73247      5.84558      8.76090        -0.033027      0.252814      0.193835
O       9.76806      9.73401      0.46500        -0.263492      0.145882     -0.479820
O       9.68095      9.69323     12.86980         0.353309      0.228836      0.674048
O       9.70951      9.69839      4.63498         0.102692      0.272456     -0.580385
O       9.72906      9.73066      8.79796        -0.315680     -0.312636     -0.304453
O       3.91505      1.97883      2.55050         0.007257     -0.361853     -0.100903
O       3.92448      1.90583     15.02662        -0.922188      0.272895     -0.014622
O       3.86355     13.62308      2.59437        -0.290512     -0.076467     -0.161458
O       3.96399     13.57439     14.93570        -0.652600     -0.125985      0.392432
O      15.56275      1.87239      2.56150         0.419684      0.532634     -0.161869
O      15.59053      1.92815     14.99189         0.457782     -0.053791      0.167541
O      15.58754     13.60607      2.58988        -0.027010      0.116038     -0.423814
O      15.55372     13.69699     14.99975         0.378491     -0.499192      0.239910
O       3.92044      1.89852      6.66959        -0.295370      0.149834      0.205205
O       3.89933     13.65519      6.68860        -0.086657     -0.194738      0.181113
O      15.59333      1.82581      6.69729        -0.339465      0.709547     -0.112334
O       0.07166     13.63268      6.79605        -1.397884     -0.069855     -0.385739
O       3.84788      1.94556     10.83443         0.761010     -0.061916      0.090961
O       3.86562     13.64473     10.79298         0.570673     -0.082036      0.326209
O      15.57726      1.97030     10.88169        -0.082890      0.030384     -0.066757
O       0.03377     13.61228     10.82306        -0.587891      0.364966      0.449197
O       3.83293      5.81089      2.59308         0.624620      0.076255     -0.362393
O       3.87969      5.92763     15.01207        -0.381230     -0.525710      0.116760
O      15.59244      5.89166      2.58997        -0.129899     -0.477023     -0.106454
O       0.03033      5.86503     14.97862        -0.881096     -0.454631      0.099451
O       3.89092      5.82593      6.71324         0.514801     -0.147182      0.106861
O      15.57004      5.78680      6.66160        -0.199105     -0.060833      0.381296
O       3.90952      5.87693     10.82321        -0.883495     -0.164385      0.016135
O      15.54642      5.84768     10.85318        -0.015989     -0.020685      0.214535
O       3.83525      9.73193      2.56422         1.201183     -0.132147     -0.017778
O       3.86869      9.70283     15.01505         0.183322      0.384540      0.060568
O      15.58872      9.72435      2.51750         0.034728      0.029293      0.297055
O      15.57696      9.75345     15.05401         0.381111     -0.263427     -0.279509
O       3.83245      9.73382      6.70306         0.919425     -0.197125     -0.058632
O      15.60431      9.72193      6.73733        -0.463259      0.017137     -0.348872
O       3.88147      9.70880     10.81803         0.076563      0.174225      0.202977
O       0.00858      9.70104     10.81280        -0.463668      0.233863      0.440815
O       7.81245      1.91826      2.60814        -0.865374      0.069597     -0.419225
O       7.81574      1.90380     15.04392        -0.459304      0.065379     -0.039415
O       7.79657     13.66977      2.52324        -0.335576     -0.174900     -0.178262
O       7.82332     13.60259     14.96938        -0.453636      0.387988      0.427203
O       7.76368      1.93123      6.68197         0.652706      0.116721      0.396170
O       7.76758     13.69130      6.69726         0.969628     -0.665873      0.177311
O       7.74639      1.90215     10.88094         0.294158     -0.014516     -0.119923
O       7.78895     13.59139     10.86003        -0.046636      0.345421     -0.073696
O       7.85467      5.84740      2.56978        -1.166192     -0.058639     -0.254311
O       7.76986      5.86714     15.04904         0.211574     -0.315620     -0.275050
O       7.83273      5.79971      6.71143        -1.052487      0.355489      0.067513
O       7.76021      5.84951     10.87127         0.618316     -0.228870      0.053771
O       7.75735      9.72950      2.53897         0.220450     -0.067115     -0.021442
O       7.77687      9.74148     15.02972         0.463066     -0.036185      0.007277
O       7.80810      9.68062      6.63525        -1.099169      0.320676      0.612546
O       7.76724      9.74219     10.92860        -0.160076     -0.198248     -0.408594
O      11.64051      1.96803      2.62236         1.165617     -0.053554     -0.288918
O      11.70320      1.97526     15.03870        -0.234474     -0.127853     -0.086126
O      11.67500     13.71383      2.52579         0.768182     -0.470799      0.175321
O      11.69899     13.63935     15.02055         0.088845     -0.182297      0.019606
O      11.67765      1.91018      6.70888        -0.132316     -0.055839      0.128941
O      11.66626     13.63748      6.71492        -0.086545      0.181586     -0.266962
O      11.73528      1.90637     10.79799        -0.664844     -0.105766      0.339359
O      11.71012     13.65847     10.84476        -0.730982     -0.288480      0.381666
O      11.67782      5.84566      2.55108         0.263323     -0.365602      0.055160
O      11.71901      5.80164     15.00795        -0.110237     -0.092640      0.040373
O      11.70373      5.87501      6.74338        -0.593421     -0.160475     -0.070540
O      11.62915      5.92448     10.87984         0.701538     -0.332401     -0.030391
O      11.67075      9.80530      2.55072        -0.033079     -0.070003      0.014390
O      11.65008      9.69635     15.05323         0.078435      0.280993     -0.291737
O      11.65612      9.69669      6.70543         0.709367      0.183205      0.212827
O      11.72228      9.75808     10.85283        -0.411952     -0.020480      0.196829
O       2.00014      3.83437      2.59084        -0.724782      0.629812     -0.261751
O       1.98185      3.85468     14.95802        -0.203785      0.204337      0.098999
O       1.95936      0.01319      2.49603        -0.171821     -0.544444      0.131876
O       1.94686     15.53221     14.98868         0.071772      0.978068      0.368515
O      13.69601      3.87255      2.57015        -0.310540     -0.003971     -0.191393
O      13.71213      3.82307     15.03190        -0.148645      1.061590     -0.071495
O      13.70773     15.58502      2.59596        -0.519931     -0.087087     -0.240156
O      13.68871     15.58877     14.95614        -0.306635      0.029302      0.314645
O       1.90958      3.86314      6.68058         0.088040     -0.419600      0.291780
O       1.93403     15.56913      6.68500         0.256873      0.138649      0.090478
O      13.59206      3.92063      6.75254         0.119401     -1.123177     -0.095211
O      13.67849     15.58750      6.69898        -0.501697     -0.179211      0.049062
O       2.00149      3.92689     10.90413        -0.626897      0.262966     -0.247236
O       1.97105      0.03632     10.82979        -0.347401     -1.026519      0.150511
O      13.58200      3.87019     10.86296         0.030138      0.814583      0.116009
O      13.64589     15.53323     10.88474         0.149252      1.076170     -0.086105
O       1.96692      7.77479      2.52036        -0.156058     -0.250077      0.089805
O       1.86777      7.76357     14.99654         0.206020      0.327559      0.022126
O      13.59137      7.85586      2.48625        -0.059331     -0.941680      0.324115
O      13.56288      7.77072     15.02610         0.516557     -0.422797     -0.109395
O       1.87955      7.68368      6.65586         0.165389      1.717332      0.497663
O      13.63912      7.76637      6.69432         0.138479      0.513668      0.299461
O       1.90242      7.81048     10.89890         0.009761     -0.462280     -0.030291
O      13.61529      7.84778     10.81799         0.137519     -1.100382      0.371411
O       1.92513     11.66703      2.52535        -0.089218      0.648448      0.109861
O       1.91630     11.67457     15.03185        -0.028204      0.105077      0.143078
O      13.66492     11.61489      2.50501        -0.167012      1.837270      0.327778
O      13.68437     11.63015     15.01224        -0.425757      1.200354      0.000021
O       1.96040     11.64933      6.77171        -0.082834      0.168078     -0.470389
O      13.63267     11.69472      6.76931        -0.012858      0.045925     -0.584745
O       1.94773     11.70447     10.83278        -0.046393     -0.520911      0.352342
O      13.69374     11.74768     10.80285        -0.167118     -1.122873      0.570132
O       5.83200      3.90880      2.50763         0.293926     -0.721497      0.025042
O       5.80068      3.91547     15.03236         0.268915     -0.639979      0.088723
O       5.78490     15.54685      2.56762         0.280983      0.730469     -0.251074
O       5.72322     15.60679     15.01368         0.986299     -0.534340      0.025495
O       5.85886      3.89936      6.69199        -0.036248     -0.175933     -0.013952
O       5.83920     15.51777      6.64924         0.084244      1.111282      0.460576
O       5.82557      3.85313     10.87054         0.092298      0.056926     -0.032468
O       5.79615     15.56631     10.85641         0.324064      0.178347     -0.213685
O       5.85530      7.72586      2.53309        -0.197460      0.832758     -0.028855
O       5.78722      7.80964     15.08876         0.478427      0.061440     -0.337012
O       5.78692      7.80503      6.75293         0.429655     -0.344007     -0.237610
O       5.78566      7.73025     10.82914         0.525533      0.924713      0.006114
O       5.80647     11.63385      2.58290         0.147450      0.311640     -0.276764
O       5.93573     11.65505     14.97226        -0.398452      0.516947      0.258881
O       5.81432     11.72853      6.63559         0.316820     -1.245785      0.441333
O       5.86108     11.68549     10.83856        -0.094473     -0.016851     -0.110832
O       9.70580      3.88521      2.48525         0.192032      0.008237      0.125943
O       9.74260      3.91107     15.08778        -0.219138     -0.509220     -0.326480
O       9.76702      0.01941      2.57371        -0.122930     -0.507215      0.094792
O       9.78325     15.57726     15.05018        -0.266030      0.141175     -0.177523
O       9.75071      3.92567      6.77036         0.059784     -0.805739     -0.152364
O       9.65057     15.59909      6.70229         0.573855     -0.277205     -0.045894
O       9.72625      3.81232     10.82408         0.120831      1.304278      0.345911
O       9.72602     15.59328     10.87054        -0.093047     -0.542121      0.176517
O       9.76425      7.79986      2.48793        -0.083601     -0.156368      0.339828
O       9.68515      7.77518     15.04303         0.384769      0.085290     -0.262086
O       9.73780      7.78597      6.66750        -0.169676     -0.425395      0.447410
O       9.64526      7.81919     10.93639         0.505894     -0.878711     -0.427834
O       9.73554     11.70074      2.58120        -0.063418     -0.058852     -0.032415
O       9.77880     11.68121     15.01552        -0.120135     -0.223003     -0.005927
O       9.75952     11.62861      6.75211        -0.378557      1.502841     -0.218834
O       9.70547     11.64001     10.83422         0.165365      0.790484      0.365631
