  # total energy = -7878.81033060 
CRSYTAL
PRIMVEC
    15.6080000000000005    0.0000000000000000    0.0000000000000000
     0.0000000000000000   15.6080000000000005    0.0000000000000000
     0.0000000000000000    0.0000000000000000   16.6239999999999988
PRESSURE
-0.600938 -0.876239 -1.71727 0.234572 -0.30219 0.025445
PRIMCOORD
320 1
Pb       3.73671      3.83496      4.17080         0.667644     -0.060122     -1.271487
Pb       3.74461      3.73503     16.55257         0.241272      0.590938      0.136881
Pb       3.93151     15.44407      4.30344        -0.015616     -0.061553     -0.631070
Pb       4.01570      0.00716      0.04816        -0.210107     -0.059881     -0.254556
Pb       0.01229      3.91714      4.16760        -0.285186     -0.031006     -0.967303
Pb      15.60556      3.95187      0.00860         0.033837     -0.145511     -0.333983
Pb       0.07588     15.58110      4.31378         0.088251     -0.267514     -0.346214
Pb      15.59815     15.57189      0.03297         0.139397      0.215644     -0.896109
Pb       4.06885      4.02696      8.28003        -0.561644     -0.273762     -0.032522
Pb       3.88691     15.53775      8.41574        -0.006380      0.087833     -0.408904
Pb       0.09912      3.93900      8.26830        -0.558790      0.270551      0.310304
Pb      15.56305      0.02675      8.38930         0.418829     -0.124829     -0.440366
Pb       3.94703      3.82437     12.35399         0.134166      0.226193     -0.161855
Pb       3.95486      0.15678     12.38740         0.074435     -0.635762      0.035586
Pb      15.52293      3.88656     12.42716        -0.205322      0.066433     -0.415776
Pb      15.52500     15.49729     12.30240         0.084986      0.342698      0.275104
Pb       3.97101      7.67104      4.18562        -0.345286      0.142645     -0.647287
Pb       3.87732      7.85477      0.05432        -0.101400     -0.535241     -0.018372
Pb      15.47419      7.71084      4.15190         0.406148      0.356574     -0.139255
Pb       0.00145      7.77601      0.01274         0.101111     -0.249727     -0.007003
Pb       3.86683      7.83865      8.28908         0.007102      0.240168     -0.014865
Pb       0.16098      7.85877      8.05566        -0.563253     -0.871294      0.693319
Pb       3.77960      7.77843     12.45955         0.289414      0.271454     -0.570135
Pb       0.04652      7.73712     12.38100        -0.252221     -0.168404     -0.107568
Pb       3.98516     11.58517      4.28306        -0.216562      0.476857     -0.266698
Pb       3.89548     11.65793      0.03269         0.222642      0.471282     -0.627273
Pb       0.06731     11.63829      4.22770        -0.212734      0.359763      0.075527
Pb       0.01168     11.57022     16.55254         0.075072      0.352257      0.175481
Pb       3.90223     11.52575      8.39475         0.120470      0.033659     -0.295111
Pb       0.01894     11.72820      8.38893        -0.092847      0.189817     -0.755470
Pb       3.77770     11.70400     12.57333         0.245435     -0.181175      0.365070
Pb      15.36834     11.80443     12.49078         0.563736     -0.196294     -0.149283
Pb       7.89085      4.05181      4.12775        -0.849113     -0.596522     -0.424355
Pb       7.77401      3.74847      0.11759        -0.158351     -0.069775     -0.406773
Pb       7.91386      0.05434      4.20051        -0.701497      0.202697     -0.338157
Pb       7.80862     15.45428     16.55619        -0.068111      0.382159      0.056590
Pb       7.90024      3.91312      8.10522        -0.017971     -0.162101      0.086902
Pb       7.70189      0.00532      8.31504         0.072029     -0.155989     -0.321349
Pb       7.81483      4.03718     12.55253        -0.406600     -0.209016     -0.266920
Pb       7.77143      0.02572     12.38086         0.039509      0.488690     -0.096936
Pb       7.82567      7.77046      4.17134        -0.305882     -0.155505     -0.442650
Pb       7.81851      7.59636      0.08104        -0.074408      0.193888     -0.267926
Pb       7.68014      7.75411      8.36078         0.561310      0.252752     -0.258473
Pb       7.65710      7.98898     12.57418        -0.091440     -0.222001     -0.314366
Pb       7.77512     11.61699      4.16168        -0.064712      0.406350     -0.440986
Pb       7.90264     11.57913      0.07334        -0.222889      0.297829     -0.731045
Pb       7.84081     11.58228      8.46144        -0.574037      0.187203     -0.072860
Pb       7.72641     11.82532     12.50622        -0.100559     -0.653256      0.466202
Pb      11.55792      3.94095      3.91594         0.364485     -0.352326      1.222125
Pb      11.61165      3.67230     16.50422         0.206049      0.953867      0.635426
Pb      11.94467      0.10220      4.16197        -0.902740     -0.240290      0.381239
Pb      11.78982     15.59329     16.62150        -0.163360     -0.201546      0.350328
Pb      11.68632      3.64862      8.11332         0.146939      0.925806      0.670634
Pb      11.82624     15.45420      8.33443        -0.660547      0.267486     -0.392725
Pb      11.52071      3.95406     12.33914         1.026399      0.104116      0.016326
Pb      11.72169      0.08140     12.57889         0.015931     -0.414323     -0.959853
Pb      11.65572      8.08214      4.19661        -0.312478     -0.629204     -0.245186
Pb      11.75959      7.74179     16.56483        -0.367610     -0.144572      0.304679
Pb      11.71367      7.71590      8.30825        -0.134189     -0.304281      0.016340
Pb      11.88363      7.59245     12.40789        -0.322965      0.602833      0.075978
Pb      11.60487     12.04524      4.09001         0.488103     -0.535671     -0.187124
Pb      11.60433     11.71452      0.06545         0.104749     -0.407823     -0.047326
Pb      11.51448     11.50670      8.16176         0.840871      1.133718      0.527140
Pb      11.67242     11.53395     12.54436        -0.222345      0.026642     -0.391162
Ti       1.87999      1.89881      2.20274         0.715353      0.959646      0.112496
Ti       1.85239      1.96202     14.55485        -0.245464     -0.242145      0.950752
Ti       1.85783     13.68919      2.14850         0.865620     -0.072502      0.663876
Ti       1.86783     13.66048     14.62976         0.655868      0.405290      0.773133
Ti      13.67652      1.95522      2.22758        -0.461715      0.223254      0.131292
Ti      13.58971      1.89966     14.55621         1.415157      0.414511      0.284214
Ti      13.70741     13.70700      2.12199        -0.980893     -0.244793      1.471992
Ti      13.61125     13.49794     14.66871         0.525239      0.852565      0.349177
Ti       1.90800      1.94993      6.33864         0.778973     -0.682825      0.263262
Ti       1.92866     13.53337      6.41017        -0.271831      0.215250     -0.232200
Ti      13.70182      1.93360      6.33532        -0.754971      0.286394     -0.296786
Ti      13.63643     13.61045      6.33846        -0.281117     -0.218265      0.725302
Ti       1.91490      1.86741     10.52262        -0.113580     -0.032734     -0.797309
Ti       2.00253     13.55476     10.54465         0.061250      1.225462     -0.756240
Ti      13.53186      1.95827     10.49581         0.375492      0.462954     -0.378869
Ti      13.48249     13.58759     10.47149         0.520214      0.319051      0.773104
Ti       1.83672      5.94620      2.17117         0.839004     -1.233506      0.129340
Ti       2.01814      5.83426     14.51484        -0.350082     -0.251775      2.058697
Ti      13.50178      5.84926      2.24431         0.569879     -0.509069     -0.800955
Ti      13.68999      5.78850     14.69084        -0.038553     -0.579350     -1.061221
Ti       2.01785      5.74279      6.26219        -0.590815      0.957384      0.452386
Ti      13.69892      5.82309      6.23459        -0.616521     -0.338151      0.861225
Ti       1.95028      5.77516     10.46386        -0.534772      0.718577     -0.296385
Ti      13.59954      5.86295     10.38706         1.078658     -1.004074     -0.915554
Ti       1.89279      9.85265      2.27248         0.128899     -1.294832      0.276793
Ti       1.90676      9.66265     14.69361         0.558213      0.890598     -0.917458
Ti      13.56614      9.77538      2.34372        -0.249650      0.665453     -1.635081
Ti      13.61663      9.61318     14.77543         0.247235      0.052317     -0.773691
Ti       1.92682      9.72063      6.30200         0.508481     -0.088539     -0.010791
Ti      13.59682      9.69962      6.35894         0.992347      0.558443      0.191141
Ti       1.84471      9.78452     10.49815         1.523295     -0.906036      0.074930
Ti      13.68052      9.70517     10.41814        -0.705912     -0.025005      0.308145
Ti       5.73845      1.93251      2.21437         0.820960      0.548042      0.431669
Ti       5.82665      1.95493     14.66154         0.205119      0.474502      0.203349
Ti       5.81392     13.64769      2.30557        -0.237123      0.587681     -0.562100
Ti       5.73536     13.63901     14.69875        -0.328012     -0.561130     -0.798587
Ti       5.72968      1.97854      6.26229         0.743516     -0.564777     -1.135020
Ti       5.77714     13.60853      6.38395         0.363243      0.316961     -0.809072
Ti       5.96589      2.09323     10.36572        -0.459657     -1.079580      0.898691
Ti       5.85094     13.72012     10.60205        -0.705999      0.043261     -1.237599
Ti       5.79313      5.91222      2.09294        -0.672218     -1.328403      0.967420
Ti       5.91221      5.87117     14.69614        -1.145068     -1.258292     -0.992063
Ti       5.84074      5.85521      6.29189        -0.092213      0.193015     -0.222137
Ti       5.88942      5.98414     10.41166        -1.429354      0.304561      0.936405
Ti       5.79445      9.80308      2.25433         0.086872     -0.850581      0.185384
Ti       5.83471      9.71497     14.74964         0.016377      1.156876     -1.533143
Ti       5.91382      9.72636      6.35426        -1.164657      0.514901     -0.588264
Ti       5.76285      9.89479     10.65179        -0.067411     -1.052912     -0.321888
Ti       9.67744      1.88043      2.19398        -1.032360      0.083709     -0.286115
Ti       9.71831      1.88662     14.56790        -1.451053      0.010887      0.184162
Ti       9.67476     13.64917      2.23941         0.262133      1.193261      0.326976
Ti       9.79885     13.62462     14.62710        -0.309054     -0.449297      0.161588
Ti       9.67950      1.82410      6.39255         0.838938     -0.458052     -0.267207
Ti       9.63897     13.62043      6.29650         1.138773      1.047722      0.822622
Ti       9.77067      1.93528     10.51168        -0.607509      0.076026     -0.403858
Ti       9.69051     13.62201     10.50621         0.637043      0.526924      0.324443
Ti       9.68614      5.90483      2.07622        -0.111689     -0.524073     -0.345806
Ti       9.77780      5.83038     14.61048        -0.361164      0.244612      0.553124
Ti       9.84736      5.85669      6.32268        -0.151178      0.368091     -0.160228
Ti       9.65331      5.94619     10.48578         1.114280     -0.056967      0.001741
Ti       9.64071      9.73863      2.11223         1.572089      0.533271     -0.236152
Ti       9.73885      9.66113     14.61104        -0.308510      0.113973     -0.079065
Ti       9.73438      9.76121      6.36759        -0.589141     -1.316491     -0.917958
Ti       9.76918      9.79587     10.53872        -0.266563     -1.273812      0.231902
O       1.80045      2.05411      0.42123         0.112251     -0.266748     -0.085226
O       1.86947      2.05008     12.79793         0.366997     -0.182248     -0.895920
O       1.73678     13.80359      0.35882         0.125762     -0.256066      0.805292
O       1.91856     13.54637     12.86174        -0.035306      0.056707     -0.920703
O      13.50448      1.96698      0.45384         0.078499      0.048537     -0.861909
O      13.54742      2.01972     12.77430        -0.099701     -0.258263      0.455651
O      13.72790     13.82088      0.37560        -0.021541     -0.390474     -1.097901
O      13.43302     13.42681     12.88235         0.110581      0.336645      0.036759
O       1.96446      2.00868      4.49855        -0.531988      0.256119      0.467721
O       1.97246     13.53790      4.59501        -0.596781      0.378821      0.743892
O      13.73281      1.85402      4.49401         0.045608     -0.096689      0.963526
O      13.53695     13.74960      4.57868         0.507389     -0.147083     -0.403623
O       1.85050      1.75734      8.71200         0.297127      0.492376      1.048343
O       1.89956     13.52574      8.70838        -0.052690      0.507453      0.293043
O      13.49862      1.98210      8.65480         0.251613     -0.535939      0.316613
O      13.54911     13.64951      8.72314         0.587257     -0.166347     -0.818700
O       1.92114      5.81569      0.37804        -0.208513      0.621431      0.060491
O       1.78288      6.03636     12.80014         0.424934     -0.892434     -1.580579
O      13.55918      5.72166      0.41673        -0.285681      0.609245      0.515872
O      13.61523      5.89853     12.84565         0.338261      0.014304      0.145419
O       2.09278      5.81276      4.49295        -0.652928     -0.492667     -0.277939
O      13.64670      5.87513      4.45723         0.028418      0.062656      0.072123
O       1.97469      5.77599      8.66086         0.146014      0.319199      0.062334
O      13.64221      5.91678      8.59776        -0.255653     -0.216286      0.214446
O       1.85941      9.60505      0.47605         0.135870      0.233777      0.224698
O       1.96548      9.82231     12.87763        -0.550290     -0.272321      0.661542
O      13.50301      9.66223      0.48798         0.272600      0.084428      0.509999
O      13.94537      9.42068     13.03426        -0.825698      1.061737     -0.202220
O       1.89232      9.84910      4.54209         0.108899      0.117576     -0.712986
O      13.53344      9.59995      4.57077         0.038913      0.561469     -0.574395
O       1.97747      9.77804      8.67363        -0.093325     -0.048323      0.129626
O      13.60489      9.73450      8.66315        -0.112191      0.236448     -0.524527
O       5.73580      1.70267      0.40157         0.427087      0.764159     -0.447478
O       5.95402      2.14532     12.88525        -0.533931     -0.640207     -0.625281
O       5.65419     13.54434      0.42070         0.462086      0.533561      0.573887
O       5.60584     13.56640     12.88023         0.625915      0.458296     -0.115938
O       5.79101      1.99119      4.41332        -0.490641     -0.162780      1.935907
O       5.66689     13.50444      4.47613         0.091824      0.585475      2.001753
O       5.94744      1.90430      8.61131        -0.473508      0.257144     -0.505772
O       5.95462     13.73667      8.75978         0.070668     -0.047305     -0.045885
O       5.66985      5.97680      0.34730         0.399599      0.086748     -1.345438
O       6.07100      5.88095     12.82508        -0.267619     -0.535478      0.441246
O       5.98071      5.93066      4.50916        -0.334451      0.245262     -0.070443
O       5.58627      5.98748      8.58814         0.715277      0.096415      0.881335
O       5.77605      9.89315      0.47507         0.005110     -0.263307     -1.239496
O       5.84530      9.83935     12.86188         0.043092     -0.453595      0.816882
O       5.83060      9.79024      4.51154         0.325322      0.294464      0.844384
O       5.62252      9.68243      8.83238         0.251754      0.462695     -0.725751
O       9.62271      2.10980      0.38973         0.332326     -0.353209      0.116603
O       9.67294      1.74708     12.74121         0.283001      0.433860      1.626845
O       9.62334     13.64402      0.47556        -0.066827     -0.366989     -1.148493
O       9.93313     13.60266     12.84150        -0.208371      0.268235      0.450397
O       9.73184      1.65574      4.63229        -0.418435      0.341710     -0.649090
O       9.89703     13.77284      4.54757        -0.820736     -0.008502     -0.449395
O       9.83695      2.02627      8.73849        -0.406220      0.268046     -1.612366
O       9.37586     13.40667      8.77748         0.726024      0.188205     -0.499454
O       9.75349      5.69516      0.27069        -0.198693      0.657872      0.900197
O       9.50642      5.86929     12.79392         0.365594      0.158579      0.080414
O       9.44502      6.03801      4.54295         0.637683     -0.135973      0.369159
O       9.78093      5.79001      8.73142        -0.313553     -0.208232     -0.908809
O       9.84509      9.89939      0.30645        -0.492783      0.008854     -0.160195
O       9.63334      9.55715     12.80638         0.292780      0.556159      0.162304
O       9.67931      9.60105      4.56761        -0.134263      0.191322      0.140546
O       9.70105      9.75591      8.71766         0.254236      0.879264     -0.565402
O       3.86880      1.97199      2.34710        -1.859797      0.182820      0.452513
O       3.77041      1.96143     14.98149         0.286859      0.079156     -0.385796
O       3.75468     13.65807      2.58482        -0.103152     -0.078161     -0.648034
O       3.77261     13.65464     14.91230        -0.196799      0.183293      0.610822
O      15.52556      2.10595      2.46479         0.633690     -0.589365      0.103354
O      15.51567      2.13700     14.86538        -0.794329     -0.011245      0.062856
O      15.50224     13.76832      2.58772         1.026963     -0.043187      0.043088
O      15.54444     13.58014     14.83881        -0.788117     -0.194068      0.207669
O       3.87262      1.98127      6.55734         0.248153      0.445236      0.275264
O       3.84302     13.67775      6.63227         0.160087     -0.017629      0.425524
O      15.59820      1.91480      6.76804        -0.671124      0.284855     -0.617431
O       0.01889     13.66682      6.71311        -0.507245      0.542781     -0.104892
O       3.92876      1.86635     10.75111        -0.213041      0.700758      0.137761
O       3.92954     13.84023     10.59569        -0.836935     -0.708006      0.592345
O      15.55149      1.82881     10.77221         0.173192      0.273395     -0.011461
O      15.46398     13.70728     10.81163         0.795506     -0.712997      0.065888
O       3.93626      6.06309      2.36859        -1.371312      0.152316      0.720678
O       3.85827      5.79804     14.78568         0.649976      0.248600      0.026770
O      15.46630      5.74909      2.45049         0.116727      0.642226      0.244908
O      15.57299      5.71168     14.87471        -0.385747      0.655891      0.390886
O       3.86179      5.78737      6.47793         0.925495     -0.008668      0.544771
O       0.03736      5.82685      6.51018        -0.185932     -0.031269      0.092094
O       3.84523      5.95077     10.75752         0.620147     -0.485087      0.427918
O      15.53474      5.72041     10.61066         0.567098      0.215264      0.764634
O       3.85296      9.65540      2.52737        -0.472899      0.662295     -0.069061
O       3.87379      9.70614     14.99680        -0.295492     -0.334773      0.292156
O      15.55703      9.83499      2.65571        -0.914650     -0.611079     -0.417652
O      15.58931      9.63647     15.17126        -0.025619      0.226998     -0.237720
O       3.86477      9.84128      6.58330         0.165690     -0.008438      0.234407
O      15.60578      9.60583      6.55487        -0.655759      0.437047      0.112278
O       3.83459      9.76241     10.89268        -0.107176      0.323194     -0.001968
O       0.01379      9.88666     10.65270        -0.989793     -0.253347      0.418962
O       7.66698      2.14586      2.55802         1.059571     -0.510641     -0.305416
O       7.79590      1.78554     15.03996         0.209274      0.464786     -0.452353
O       7.72504     13.70341      2.71259        -0.334299     -0.408971     -0.547504
O       7.66308     13.49955     14.84439         0.790186      0.599656      0.207153
O       7.75383      1.89068      6.56854         0.316766      0.220474      0.353779
O       7.80367     13.73476      6.51384        -1.111332     -0.338160     -0.189736
O       7.77973      1.95457     10.70860         0.092466     -0.091485      0.220639
O       7.78285     13.59389     10.98473         0.137508      0.419478      0.028439
O       7.76076      5.94321      2.32798         0.234369     -0.304264      0.063671
O       7.66877      5.75251     15.18188         1.542515      0.216891     -0.314500
O       7.62503      5.97785      6.75521         1.827732     -0.094712      0.195168
O       7.74614      5.92759     10.61487         0.008261     -0.156953     -0.236429
O       7.83413      9.91469      2.33989        -1.683311      0.365336      0.571730
O       7.80175      9.84379     14.82479        -0.747691      0.135076      0.838719
O       7.80364      9.82410      6.59890        -0.763251     -0.481946      0.460697
O       7.73032      9.85689     10.65763         0.429113     -0.133815      0.537667
O      11.50787      1.90949      2.58414         0.861706      0.188190     -0.377924
O      11.58366      1.87394     15.02954         0.462766     -0.318006     -0.855997
O      11.65064     13.85132      2.49346        -0.201586     -0.723954     -0.265143
O      11.72457     13.67737     15.16313        -0.467814     -0.033191     -0.534839
O      11.63056      2.02410      6.54435         1.064758     -0.642374      0.003428
O      11.70547     13.60393      6.62378        -0.132170     -0.562292      0.579514
O      11.65786      1.91281     10.79488         0.385575     -0.109423      0.517429
O      11.64145     13.65403     10.55491        -1.144123     -0.213968      0.562271
O      11.52024      5.94201      2.50884         1.045096      0.067919      0.050357
O      11.60687      5.98888     14.77993        -0.237375     -0.107738      0.104277
O      11.70928      5.82184      6.44766        -0.068590      0.336267      0.231631
O      11.71297      5.79270     10.73646        -0.770737      0.511736      0.628181
O      11.52906      9.86102      2.49561         1.405184     -0.350812      0.621877
O      11.68333      9.74370     14.73110         0.110387     -0.476641      0.526231
O      11.62816      9.75062      6.60160         0.984724      0.009179      0.179124
O      11.70485      9.67543     10.87087         0.267823      0.425334     -0.129157
O       1.86306      4.00540      2.50601         0.495526     -0.802321      0.292959
O       1.91659      3.97215     14.86648         0.042175     -0.892241      0.128448
O       1.85167      0.02554      2.61081        -0.281719     -0.038423     -0.357983
O       1.70087      0.06247     14.90144         0.240018     -0.194319     -0.153733
O      13.51392      3.85472      2.57511        -0.377397      0.859993     -0.108792
O      13.41452      3.94936     14.89482         0.088236     -1.126042      0.127156
O      13.52399      0.03985      2.37121         0.590841      0.198973      0.480311
O      13.70887     15.60034     14.77151        -0.692580      0.380382      0.320021
O       1.97606      3.85398      6.84767        -0.170252      0.259094     -0.963851
O       1.92192      0.12811      6.61907        -0.040775     -1.692517     -0.097229
O      13.67175      3.90179      6.50959         0.250809     -0.235900      0.151161
O      13.57650     15.60540      6.64850         0.407745      0.167092      0.155276
O       1.99104      3.91358     10.79171        -0.109513     -0.902188      0.039004
O       2.02054     15.53322     10.87697        -0.828929      0.851903     -0.014952
O      13.53407      3.86138     10.68704         0.351406     -0.096341      0.439570
O      13.49059     15.57332     10.87931         0.245141     -0.187547     -0.079684
O       1.77987      7.75353      2.65428        -0.032735      0.853589     -0.464967
O       1.94931      7.78991     14.84558        -0.388315     -0.012494      0.633439
O      13.49218      7.82110      2.53886         0.416166     -0.121745     -0.192243
O      13.57433      7.68742     15.08136         0.376137      0.817776      0.351581
O       1.99089      7.76173      6.43150        -0.024042     -0.189627      0.774786
O      13.68204      7.81483      6.65142        -0.437064     -0.447945     -0.207756
O       1.90582      7.83499     10.78778        -0.234299      0.168671     -0.152113
O      13.67686      7.80386     10.70807        -0.006256     -0.073978      0.295812
O       1.75490     11.73030      2.46848         0.401078      0.076562     -0.402914
O       1.87511     11.70674     15.05915        -0.034372     -0.621889      0.002671
O      13.53700     11.78351      2.48998         0.089246     -0.436940      0.030808
O      13.60306     11.61833     15.06728         0.152004     -0.022320     -0.287201
O       1.73042     11.61796      6.61850         0.504064      1.070765      0.295441
O      13.79347     11.68647      6.62913        -0.518977     -0.498932     -0.083658
O       1.97285     11.73477     10.75895        -0.026525     -0.372699      0.258522
O      13.56834     11.60440     10.94486         0.017876      0.327670     -0.438862
O       5.68240      3.96784      2.40717         0.343909      0.254813     -0.154826
O       5.91526      3.83484     14.92056        -0.534733      0.271268      0.661031
O       5.68517      0.00504      2.51195         0.363658     -0.890619      0.200085
O       5.62842      0.06212     14.88864         0.609723     -1.520121      0.032855
O       5.91047      3.96749      6.53134        -0.352355     -0.759959      0.527099
O       5.75263      0.02501      6.61550         0.071609     -0.513126     -0.167531
O       5.86066      3.93698     10.55057        -0.449058      0.983861      0.437368
O       5.86764      0.02153     10.82267         0.451445      0.355242      0.390964
O       5.87664      7.90062      2.46747         0.306585      0.056716      0.099515
O       5.91184      7.74335     14.86852        -0.239542      1.524242      0.408005
O       5.76507      7.89334      6.62254        -0.008262     -0.129920      0.043190
O       5.78665      7.87692     10.89194         0.327909     -1.009250     -0.348281
O       5.81870     11.75050      2.57103        -0.202800     -0.737781     -0.013898
O       5.56312     11.67127     14.88836         0.511923     -0.156843      0.597882
O       5.70893     11.74879      6.73494         0.727549     -0.316515     -0.170565
O       5.77101     11.79305     10.83958        -0.016326     -0.451333     -0.061624
O       9.70630      3.97462      2.55453        -0.458391      0.021874     -0.244839
O       9.70883      3.93273     14.82879        -0.085908     -1.309362     -0.415148
O       9.44154      0.02709      2.26261         0.191663      0.402686      0.504605
O       9.69035     15.53295     14.95733         0.183052      0.199086     -0.025482
O       9.77106      3.92015      6.41051        -1.095601     -0.013247      0.739450
O       9.81831     15.50558      6.80728        -0.451560      0.373193      0.004480
O       9.79876      3.80049     10.88127        -0.926590      1.674858     -0.058713
O       9.70959      0.04524     10.64550        -0.340280     -2.109648      0.511287
O       9.53320      7.91658      2.24193         0.443158     -1.443484      0.284413
O       9.55300      7.77574     15.02557         0.322913      0.263682     -0.181996
O       9.86301      7.75130      6.79340        -0.882413      0.457134     -0.325790
O       9.82910      7.82134     10.57653        -0.540404     -0.711705      0.492186
O       9.65585     11.82312      2.50335         0.192677     -0.966058      0.377504
O       9.81904     11.71638     14.95809        -0.068826      0.018585     -0.140392
O       9.69386     11.65538      6.50236         0.206236      0.436200      0.523250
O       9.75042     11.66662     10.88988         0.167626      0.282200      0.020633
