  # total energy = -7881.46849315 
CRSYTAL
PRIMVEC
    15.6080000000000005    0.0000000000000000    0.0000000000000000
     0.0000000000000000   15.6080000000000005    0.0000000000000000
     0.0000000000000000    0.0000000000000000   16.6239999999999988
PRESSURE
-0.441524 -0.289772 -0.667495 0.002089 -0.116059 0.039128
PRIMCOORD
320 1
Pb       4.05115      3.96553      4.24871        -0.737377      0.139678     -0.625412
Pb       3.95113      3.96847     16.53478        -0.540007     -0.026236      0.095107
Pb       3.93996      0.10588      4.05624        -0.200895     -0.404901      0.206790
Pb       3.82958      0.00201     16.44963         0.094325     -0.130610      0.178110
Pb       0.02608      3.85849      4.13866        -0.073280      0.026352      0.263740
Pb      15.58163      3.76650     16.60539         0.074432      0.305336     -0.132307
Pb      15.50433      0.00448      4.08061        -0.086239     -0.148656      0.146221
Pb      15.57224      0.04242     16.59622        -0.198843     -0.253933     -0.342483
Pb       3.82088      3.82015      8.24764        -0.111915      0.375707      0.017093
Pb       3.97423      0.00427      8.17069        -0.177889      0.021733      0.144062
Pb      15.52412      3.90428      8.29626         0.236630      0.471941      0.284620
Pb       0.01886     15.56745      8.24117        -0.259184     -0.161486      0.112296
Pb       3.71039      3.93609     12.64789         0.057660     -0.190174     -0.469113
Pb       3.85387     15.49396     12.55505         0.009853     -0.136649     -0.380150
Pb      15.59432      3.95273     12.60682        -0.175913      0.226794     -0.772182
Pb       0.16550     15.56506     12.46866        -0.235312      0.044881     -0.019304
Pb       3.76990      7.89279      4.00397         0.649836     -0.587215      0.355264
Pb       3.93222      7.66207     16.57294        -0.381523      0.385015      0.676157
Pb       0.07093      7.86971      4.11048         0.196924     -0.529756      0.283118
Pb      15.50902      7.73858     16.59343         0.324324      0.115985      0.139645
Pb       3.86668      7.74887      8.34173        -0.206771     -0.197417     -0.237468
Pb      15.34920      7.71401      8.53180         0.744664     -0.208288     -0.534367
Pb       3.95632      7.83139     12.41127        -0.094074      0.287091      0.070059
Pb      15.40582      7.73519     12.51928         0.526589      0.212874     -0.626596
Pb       3.83567     11.69253      4.06265         0.334172      0.030836      0.081079
Pb       3.92638     11.64557     16.55617         0.067389      0.468874     -0.036994
Pb      15.56002     11.72680      4.11819         0.155894      0.199632     -0.023382
Pb      15.54648     11.78365     16.61560        -0.233985     -0.177049     -0.268350
Pb       3.84886     11.88999      8.30139        -0.047512     -0.710429      0.206364
Pb       0.03095     11.64039      8.11752        -0.103222      0.309784      0.287622
Pb       3.92623     11.63945     12.25862         0.213427      0.070569      0.854951
Pb       0.07769     11.59247     12.41790         0.013698      0.006431      0.244261
Pb       7.77426      3.67190      4.14505         0.420722      0.437115     -0.511839
Pb       7.84561      3.92118     16.54071        -0.050617      0.201006      0.451941
Pb       7.80272     15.48556      4.15157         0.048939     -0.208789     -0.110215
Pb       7.82796      0.11902     16.56353        -0.343160     -0.864150      0.588862
Pb       7.68046      3.79589      8.54005         0.084200      0.344764     -0.450353
Pb       7.82690     15.60027      8.27712         0.038580      0.014271     -0.043276
Pb       7.78257      3.62563     12.48570         0.393392      0.386826      0.995310
Pb       7.80252     15.54684     12.49353         0.070466     -0.368650     -0.260776
Pb       7.93194      7.81681      4.12728        -1.021857      0.317135     -0.137550
Pb       7.67736      7.80357     16.55323         0.052566     -0.174325      0.405053
Pb       7.89187      7.85925      8.17923        -0.658787     -0.293206      0.049410
Pb       7.89524      7.60934     12.38334        -0.511541      0.814888      1.015256
Pb       7.87203     11.67619      4.08179        -0.378969     -0.177715      0.402985
Pb       7.77303     11.79479     16.48515        -0.301237      0.005762      0.269174
Pb       7.73685     11.71271      8.21092         0.155676     -0.228579      0.022103
Pb       7.83201     11.56414     12.38331        -0.147960      0.489944      0.455794
Pb      11.76641      3.77931      4.29978         0.284361      0.003672     -0.651548
Pb      11.72019      4.10702      0.27027        -0.125925     -0.502318     -0.428955
Pb      11.42222     15.54971      4.15129         0.656807     -0.196093      0.027697
Pb      11.66024     15.59246     16.49591         0.451200      0.075340      0.649629
Pb      11.65635      4.13307      8.42760        -0.037246     -0.556609     -0.148976
Pb      11.61758      0.12880      8.37170         0.166662     -0.184210     -0.237780
Pb      11.83059      3.74530     12.48727        -0.309340      0.445001     -0.373369
Pb      11.54750     15.50416     12.35473         0.422844      0.359259      0.525892
Pb      11.64260      7.65632      4.04776         0.210101      0.216893      0.373919
Pb      11.69005      7.84857      0.02085        -0.133712     -0.001379      0.430319
Pb      11.65844      7.81471      8.30090        -0.119366     -0.208240     -0.403476
Pb      11.46390      7.98980     12.49977         0.646362     -0.494673      0.355535
Pb      11.83362     11.38827      4.22556        -0.324451      0.737751      0.030287
Pb      11.79743     11.65867     16.59070        -0.196194     -0.126472      0.152468
Pb      11.77755     11.89094      8.42916         0.213368     -0.135777     -0.829727
Pb      11.77248     11.76556     12.40387        -0.101622     -0.557654      0.539503
Ti       1.89801      1.92961      2.18942        -0.103840      0.350414     -0.561436
Ti       1.95655      1.98146     14.66214        -0.496203     -0.253494      0.628650
Ti       1.88652     13.65875      2.16968        -0.663556      0.624305     -0.044881
Ti       1.92355     13.57161     14.66457        -0.180362      0.484338     -0.644158
Ti      13.60286      1.85605      2.23149        -0.074231      0.555507     -0.529851
Ti      13.67766      1.96875     14.62649        -0.305704     -0.526219      1.716981
Ti      13.49737     13.58559      2.26025         0.490695      0.315810      0.286116
Ti      13.60290     13.63744     14.55375         0.869132      0.205865      0.114069
Ti       1.86476      1.95138      6.36823         0.025114      0.603202      0.162121
Ti       1.93561     13.70476      6.23897        -1.037385     -0.697626      0.237670
Ti      13.61758      1.89181      6.53319        -0.623774      0.287406     -0.819041
Ti      13.55343     13.62281      6.33966         0.323049      0.116048     -0.172027
Ti       1.92014      1.98079     10.55590        -0.130359     -0.136439      0.069128
Ti       1.90383     13.61511     10.47307         0.218138      0.308957      0.786186
Ti      13.67672      1.87333     10.56318         0.045282      0.858920     -0.468655
Ti      13.72227     13.67645     10.55973         0.087399     -0.815484     -1.305406
Ti       1.94653      5.78751      2.24262         0.404962      0.077908     -0.837958
Ti       1.85673      5.93802     14.70625        -0.271538     -1.124219      0.803770
Ti      13.70292      5.74194      2.22992        -0.254957      0.652089      0.515233
Ti      13.57256      5.83629     14.71548         0.574912     -0.597967     -0.208383
Ti       1.85754      5.92347      6.34546        -0.490074     -0.008049     -0.002705
Ti      13.57815      5.81087      6.40743         0.268560      0.574385     -0.727941
Ti       1.97591      5.88078     10.59030        -1.221823      0.234159     -0.968850
Ti      13.56379      5.84528     10.60975         0.591539     -0.321104      0.669796
Ti       1.93380      9.81789      2.10714        -0.016087     -0.960438     -0.865926
Ti       1.96689      9.79031     14.65040        -0.612409     -0.389277      0.498120
Ti      13.69718      9.61725      2.28507        -0.493072      0.456776     -1.578156
Ti      13.65372      9.65858     14.69018        -0.541345      1.020177     -0.388533
Ti       2.01843      9.75274      6.28849        -1.843944     -0.564139      0.206271
Ti      13.69235      9.62873      6.39672        -0.158566      0.258886      0.410203
Ti       2.03941      9.70486     10.46069        -0.929824     -0.506445      0.400157
Ti      13.67568      9.78948     10.54324         0.681917     -0.487782      1.361844
Ti       5.79935      1.98357      2.12053         0.432390     -0.503352      0.838754
Ti       5.90692      1.93233     14.74286        -0.736119     -0.111556     -0.240988
Ti       5.76024     13.71469      2.18244         1.211154     -0.472309     -0.974645
Ti       5.83816     13.62706     14.66080        -0.293965      0.269302     -0.261934
Ti       5.91621      1.95916      6.29860         0.020774     -0.456514     -0.143281
Ti       5.78912     13.59145      6.26922         0.860769      0.736263     -1.060332
Ti       5.74134      1.84592     10.69002         0.249446     -0.089600      0.260520
Ti       5.80270     13.63159     10.50599         1.054318     -0.242402      0.009933
Ti       5.85749      5.83377      2.24087        -0.373445      1.310350     -0.005904
Ti       5.76607      5.91530     14.62253         1.468906     -1.074844      0.404572
Ti       5.73257      5.84120      6.34847         0.799764      0.534659     -0.029040
Ti       5.88580      5.63978     10.69099        -0.554153      0.867983     -0.985779
Ti       5.81317      9.83508      2.18922         0.632177     -0.963775     -0.065395
Ti       5.74780      9.77937     14.68917         1.604570      0.063623     -1.439971
Ti       5.73192      9.76471      6.34975         1.000114     -1.268833     -0.906591
Ti       5.99431      9.63807     10.53605        -0.354486      0.157103     -0.252907
Ti       9.73420      1.89006      2.12116         0.024661      0.614804      0.430885
Ti       9.86663      1.98247     14.73070        -0.231735     -0.613155     -0.418316
Ti       9.67962     13.55077      2.17525         0.223588      0.872087     -0.201727
Ti       9.78013     13.58220     14.67903        -0.685502      0.233815     -0.115519
Ti       9.77447      2.05190      6.38669         0.133344     -1.183045      0.545045
Ti       9.70757     13.65623      6.39809         0.387867      0.233893     -0.813121
Ti       9.78244      1.91120     10.56892        -0.270252      0.066315      0.358510
Ti       9.78865     13.58533     10.43390        -1.510543      0.932849     -0.410922
Ti       9.71064      5.77906      2.23354        -0.127487     -0.094061     -0.196267
Ti       9.74507      5.83505     14.77313        -0.124513     -0.116627     -0.382162
Ti       9.58281      5.78515      6.25868         0.435763      0.689222      0.438918
Ti       9.72313      5.73765     10.68906         1.104804     -0.372957     -0.289051
Ti       9.78541      9.78868      2.17864        -0.400060     -0.930427     -0.531910
Ti       9.69195      9.68022     14.83545         0.158069      0.491984     -1.427810
Ti       9.77256      9.76192      6.32627         0.299166      0.439353     -0.287910
Ti       9.82009      9.78976     10.43976        -0.641653     -0.245462     -0.123931
O       1.84985      1.94699      0.36224         0.000437     -0.231980      0.558056
O       1.97330      1.93123     12.89476         0.022618      0.086469     -0.907685
O       1.75100     13.63955      0.35221         0.266345     -0.010855      0.907421
O       1.96285     13.59785     12.84826         0.014816      0.144021      0.102712
O      13.61016      2.05976      0.44886         0.295402     -0.519136      0.083048
O      13.49093      1.96803     12.91997         0.420620     -0.323611     -1.905514
O      13.63187     13.59893      0.49222        -0.051108     -0.156266     -0.326728
O      13.53214     13.56965     12.75211        -0.057347      0.454565      0.927446
O       1.77431      1.93079      4.61796         0.243448      0.097805      0.131376
O       1.88048     13.54478      4.49311         0.406774      0.569228     -0.252087
O      13.61427      2.02303      4.74375        -0.088023      0.110510     -0.633801
O      13.48355     13.67000      4.54253         0.375120     -0.183107      0.849071
O       1.88494      1.90033      8.78495         0.181984      0.055771     -0.473779
O       2.01125     13.49837      8.70659        -0.196110      0.509396     -0.403756
O      13.54725      1.85149      8.75995         0.795684      0.108834      0.557238
O      13.75410     13.48294      8.69472        -0.387173      0.278781      0.705728
O       1.98482      5.84637      0.40533        -0.005934     -0.303957      0.640139
O       1.81152      5.72235     12.94544         0.500387      0.269075     -0.779168
O      13.62392      5.84934      0.42594        -0.183199     -0.227285     -0.045091
O      13.77851      5.82398     12.93085        -0.435202     -0.109785     -0.316884
O       1.72416      5.86946      4.52942         0.438847     -0.347408      0.181731
O      13.61519      5.82151      4.61018        -0.086735     -0.019645     -0.198163
O       1.99785      6.11517      8.77510         0.301194     -0.798723      0.520719
O      13.53794      5.84073      8.83870         0.092011      0.262433     -0.990913
O       1.99500      9.73508      0.29483        -0.000385      0.315097      1.282673
O       1.94858      9.76916     12.90296         0.107328     -0.053807     -0.292662
O      13.58911      9.62286      0.46287         0.169305      0.229343      0.187240
O      13.55507      9.71902     12.89838         0.346384      0.036716      0.424566
O       1.74248      9.73169      4.48540         0.560039      0.126879      0.100458
O      13.70881      9.57052      4.60062        -0.194742      0.547379     -0.622557
O       2.09137      9.72938      8.68678        -0.284496     -0.385799      0.176057
O      13.52864      9.60618      8.80325         0.227178      0.709777     -0.489910
O       5.69490      1.86704      0.38829         0.046188      0.348226     -0.882406
O       5.92145      1.79333     12.98627        -0.217180      0.084297     -1.013239
O       5.89130     13.65958      0.35031        -0.242574     -0.061488      1.071305
O       5.78063     13.68711     12.87962        -0.334378      0.005137     -0.849226
O       5.92867      2.01660      4.49278        -0.187606     -0.050667      0.599380
O       5.73706     13.64125      4.45861        -0.047231     -0.247824      1.036196
O       6.10373      1.98227      8.96914        -0.636330     -0.027283     -1.654271
O       5.78400     13.70289      8.69580        -0.097422     -0.291982     -0.520789
O       5.60494      5.97532      0.46297         0.495190     -0.705175     -0.077338
O       6.04651      5.96680     12.89377        -1.021074     -0.616643     -0.598077
O       5.68639      5.72894      4.54857         0.507853     -0.035685      0.153853
O       5.77359      5.54242      8.84538         0.328906      0.233751      1.294909
O       5.82617      9.76034      0.36525        -0.129292     -0.014307      0.292374
O       5.87266      9.78656     12.86580        -0.003789     -0.042615      0.079890
O       5.73028      9.81653      4.58050        -0.089521     -0.097988      0.192133
O       6.00122      9.60343      8.76576        -0.246590      0.273516     -0.307066
O       9.81890      1.99362      0.36523        -0.056643     -0.136123      0.042174
O       9.78661      1.69635     12.89950         0.231609      0.651030      1.225015
O       9.57763     13.62974      0.37623         0.233786     -0.167064      0.407756
O       9.74750     13.62691     12.87130         0.410275      0.283064      0.241729
O       9.63883      1.90412      4.59845         0.402419      0.247148     -0.362369
O       9.72621     13.79266      4.55317         0.079769     -0.257418      0.838193
O       9.72863      1.98724      8.80664        -0.340840     -0.165469     -1.034274
O       9.73786     13.67979      8.61305        -0.279017     -0.564057      0.723018
O       9.87840      5.77749      0.43666        -0.349125     -0.042891     -0.075884
O       9.84041      5.99723     12.99020        -0.435080     -0.521752     -0.088270
O       9.55786      5.95703      4.48902         0.269689     -0.585424     -0.000795
O       9.74503      5.67723      8.93681        -0.230578      0.220623     -0.710675
O       9.83615      9.69700      0.32736        -0.709033      0.400311      0.886791
O       9.78988      9.80905     12.96039         0.026475     -0.419876      0.768298
O       9.82344      9.95420      4.47409        -0.261537     -1.024293      1.288583
O       9.80998      9.79699      8.63323        -0.264725     -0.163535      0.682113
O       3.82556      1.78722      2.51262         0.696190      0.512112     -0.147074
O       3.82145      1.87810     14.95045         0.654993     -0.067526      0.107019
O       3.88833     13.72379      2.38726        -1.015731      0.184681      0.172681
O       3.85315     13.55972     14.94375        -0.436671      0.699284      0.409595
O      15.56944      2.08661      2.54661        -0.701291     -0.746869     -0.145842
O      15.56334      1.83985     14.92290         0.176210      0.553706      0.178233
O      15.50604     13.65839      2.60833         0.805532     -0.408975     -0.228904
O      15.56398     13.39014     14.82188        -0.361444      0.636469      0.269704
O       3.92533      1.86500      6.58664         0.049540      0.402495      0.298836
O       3.85918     13.61415      6.59900         0.197893      0.003527      0.145598
O      15.51672      2.02107      6.84794         0.806901     -0.745835     -0.352657
O       0.02935     13.67530      6.61895        -0.390205      0.011713     -0.060793
O       3.83578      1.93599     10.83616         0.833854     -0.102355      0.214858
O       3.86664     13.54116     10.81654        -0.404794      0.397076     -0.242418
O       0.00220      1.93157     10.98992        -0.260471     -0.316314     -0.321828
O      15.57426     13.70595     10.86193         1.533370     -0.278313     -0.126062
O       3.82189      5.77974      2.55013        -0.187213     -0.223907      0.317872
O       3.88236      5.86570     14.97494        -0.447236     -0.007060     -0.469089
O      15.55316      5.79811      2.39847         0.212898     -0.163541      0.274510
O      15.57137      5.76167     15.00356         0.235080      0.686859      0.427263
O       3.86922      5.80326      6.67226        -0.294766     -0.643732      0.159411
O      15.58310      5.94863      6.77811        -0.052818     -0.256348      0.157139
O       3.90300      5.95467     10.98900         0.883149     -0.833203     -0.026324
O       0.02013      5.82079     10.78663        -0.286230      0.330571      0.415496
O       3.86609      9.73386      2.55996        -0.683942      0.762719     -0.405228
O       3.93773      9.82357     14.83253        -1.285045     -0.670806      0.518467
O      15.59816      9.86368      2.33635         0.353967     -0.499873      0.460939
O      15.52213      9.77063     15.00849         0.611026     -0.006537     -0.138679
O       3.81557      9.82147      6.61567         1.152471     -0.212672      0.075893
O      15.55224      9.62476      6.78791         0.357477      0.020209     -0.212248
O       3.97640      9.74799     10.81502        -0.293448     -0.866335     -0.151325
O       0.00124      9.69972     10.93773        -0.357842     -0.359554     -0.680274
O       7.78057      2.09406      2.26070        -0.302941     -0.256968      0.665556
O       7.80118      1.97694     15.06863        -0.370289      0.254201     -0.233975
O       7.75766     13.53004      2.59693         0.285935      0.222492     -0.311732
O       7.68218     13.61080     14.80116         2.032735     -0.099130      0.656824
O       7.88419      1.77415      6.60339        -1.686906      0.656319      0.420298
O       7.77688     13.67864      6.47791        -0.416684     -0.062505      0.743874
O       7.88305      1.93086     10.99913        -0.852276     -0.497459     -0.389113
O       7.74854     13.63036     10.79447         0.548122      0.081687     -0.096873
O       7.80056      5.85513      2.32982        -1.364264      0.025674      0.450881
O       7.72577      5.80864     15.15542         0.302660     -0.072300     -0.280290
O       7.74322      5.85907      6.65845        -0.096521     -0.111431      0.082744
O       7.86584      5.52444     11.06836        -0.668437      0.734061     -0.870326
O       7.72952      9.75912      2.62350         0.147607      0.220683     -0.619401
O       7.77834      9.79798     14.90260         0.452641     -0.154717      0.703328
O       7.76594      9.63032      6.55596         0.626494      0.139758      0.302435
O       7.88789      9.82965     10.83431         0.032851     -0.194443     -0.309480
O      11.65296      1.87522      2.52194        -0.119720      0.153764      0.269647
O      11.71358      1.83213     14.96277        -0.204885      0.379250     -0.021011
O      11.62390     13.66189      2.57229        -0.202807      0.232520     -0.483846
O      11.66688     13.76549     15.02033        -0.316355     -0.300698     -0.475241
O      11.70234      2.06819      6.82220        -0.706353     -0.035842     -0.405626
O      11.68308     13.60721      6.74124         0.162419     -0.373579     -0.117528
O      11.71145      2.02304     10.79755         0.941196     -1.084295      0.523195
O      11.68027     13.54725     10.66287         0.334958      0.057426      0.196031
O      11.55467      5.86507      2.60329         1.709190      0.061869     -0.132094
O      11.70875      5.86075     15.05466        -0.081862     -0.333858     -0.182089
O      11.64460      5.83818      6.68134        -0.355853     -0.211932      0.031856
O      11.69478      5.79081     10.91327        -0.199159     -0.134248      0.149338
O      11.66291      9.56889      2.38289         0.520051      0.688358      0.816757
O      11.68403      9.58591     15.05698        -0.042984      0.388528     -0.230278
O      11.68427      9.70804      6.64794        -0.306941      0.095022     -0.212609
O      11.71178      9.74877     10.96096        -0.485957      0.542028     -1.022662
O       1.89828      3.78382      2.58494         0.353782      1.276115     -0.208378
O       1.92001      3.88081     14.93348         0.201405     -0.211935      0.187111
O       1.76354      0.02665      2.56340         0.427828     -0.894245     -0.235664
O       1.79847     15.56818     14.89870         0.507678     -0.573250      0.232757
O      13.51403      3.88917      2.48173        -0.161323      0.243540      0.447929
O      13.74991      3.87664     14.87518        -0.557459     -0.112100      0.403121
O      13.68428      0.01961      2.51981        -0.156937     -0.305461     -0.055709
O      13.67743     15.55152     15.01741         0.087258     -0.253511     -0.233654
O       1.85149      3.90924      6.74586         0.423113     -0.402427     -0.120020
O       1.86908      0.01993      6.62869         0.389795     -0.401284      0.167660
O      13.67238      4.00309      6.71748        -0.058209     -1.224217      0.542183
O      13.47618     15.59954      6.67056         0.804133     -0.394398      0.239810
O       1.96532      3.90313     10.80131         0.288865      0.135331      0.257333
O       1.95233     15.56394     10.77469        -0.048989     -0.473690      0.353167
O      13.72532      3.84544     10.77211        -0.423877      0.047353      0.683979
O      13.71373     15.50768     10.81891        -0.538496      1.350233      0.094254
O       1.96664      7.78723      2.44627        -0.567544      0.371310     -0.009782
O       1.95365      7.74974     15.01085        -0.237442      1.211746     -0.344033
O      13.68163      7.75999      2.58835        -0.000837     -0.279838     -0.264618
O      13.64737      7.76399     14.95510         0.335228     -0.017098      0.164388
O       1.98397      7.76212      6.49017         0.406539      0.936388      0.384444
O      13.59683      7.74802      6.80853        -0.159422      0.384429      0.098833
O       1.92045      7.77754     10.95736         0.481738      0.611124     -0.028261
O      13.59770      7.78442     10.87188         0.357221      0.124007      0.045458
O       1.95275     11.74361      2.51435        -0.020649     -0.125173     -0.496411
O       2.00438     11.65186     14.98228        -0.333926      0.077689      0.153435
O      13.60128     11.65993      2.54896        -0.259908     -0.437701      0.156932
O      13.45261     11.75417     14.96390         0.143142     -0.825479      0.022581
O       1.87055     11.63676      6.50534         0.058460      0.805000      0.419986
O      13.70380     11.64050      6.61200        -0.304232      0.152391     -0.018131
O       1.86131     11.58101     10.69299         0.323123      1.080161      0.502164
O      13.87208     11.72790     10.94992        -1.483248     -1.067134     -0.844739
O       5.75230      3.89327      2.50360        -0.058223     -0.349552     -0.088876
O       5.65976      3.92116     14.85945         0.548061     -0.700587      0.445526
O       5.96925      0.00782      2.53167        -0.567159      0.223122     -0.096268
O       5.83236     15.58378     14.96080        -0.298324      0.346388      0.368411
O       5.89375      3.84272      6.70508        -0.115608     -0.850871     -0.245735
O       5.83954     15.53687      6.52286        -0.258332      0.583417      0.521887
O       5.85274      3.76450     11.08596        -0.288064      0.939603     -0.034296
O       5.81059     15.57782     10.75081        -0.203913     -0.300723      0.710278
O       5.64667      7.79070      2.53694         0.791879     -0.232228     -0.097020
O       5.89850      7.74735     14.91956        -0.501946      1.499636      0.451989
O       5.74263      7.72026      6.68736         0.109463      0.363504      0.018541
O       6.07672      7.67811     10.86347        -0.516486      0.418716     -0.393970
O       5.78916     11.69408      2.44955        -0.396425      0.365459      0.060165
O       5.77273     11.70515     14.97215         0.275975     -0.405037      0.235281
O       5.92086     11.61319      6.65313        -0.455851      1.460674      0.238451
O       5.81737     11.68467     10.68488         0.286484     -0.264759      0.346949
O       9.78741      3.89713      2.47748        -0.175657     -0.602566      0.316493
O       9.73118      3.90140     15.08543         0.212745     -0.412791     -0.497741
O       9.61024     15.55199      2.52573         0.147469      0.728996     -0.455563
O       9.65024      0.05173     15.20592         0.452735     -0.619324     -1.207473
O       9.69259      3.90481      6.59598        -0.091003      0.098800      0.017196
O       9.84113      0.02009      6.82745        -0.123748     -0.132935     -0.650895
O       9.85252      3.74991     10.91736        -0.323089      1.609625      0.636493
O       9.80035     15.56250     10.80223        -0.038901     -0.760934     -0.202788
O       9.64112      7.90646      2.60257         0.226542     -0.717191     -0.401027
O       9.65531      7.68139     15.17344         0.112919      1.419984     -0.545196
O       9.73989      7.69701      6.68672         0.022926      1.007798     -0.194623
O       9.64821      7.80640     10.82829         0.617514      0.033203     -0.390475
O       9.82598     11.68305      2.48221        -0.341567     -0.035571     -0.050966
O       9.80385     11.72261     14.98828        -0.039014     -0.112655      0.114201
O       9.67534     11.72010      6.56017         0.028831     -0.400055      0.380586
O       9.76623     11.72985     10.73669         0.023214     -0.843715      0.043022
