  # total energy = -7882.81731119 
CRSYTAL
PRIMVEC
    15.6080000000000005    0.0000000000000000    0.0000000000000000
     0.0000000000000000   15.6080000000000005    0.0000000000000000
     0.0000000000000000    0.0000000000000000   16.6239999999999988
PRESSURE
-0.640135 -0.501472 -0.009731 -0.278228 0.303292 -0.000899
PRIMCOORD
320 1
Pb       3.88517      3.79051      4.08967         0.208857      0.666662      0.641636
Pb       3.81047      3.80347      0.05282        -0.172362      0.117242     -0.371734
Pb       3.90932     15.54769      4.18511         0.211310      0.061200      0.243006
Pb       3.87026     15.52638      0.03763         0.297982      0.345642     -0.292793
Pb      15.46714      3.83157      4.12403         0.318277      0.003754     -0.112306
Pb      15.55783      3.88425     16.55292         0.315213     -0.396116      0.474213
Pb       0.08589      0.00148      4.15320        -0.337231     -0.190297     -0.366148
Pb       0.07580     15.56861     16.62347        -0.440169      0.473140      0.064839
Pb       3.94771      3.95492      8.34599        -0.184943     -0.026685     -0.647874
Pb       3.94374      0.16240      8.43607        -0.451976     -0.676804      0.003780
Pb       0.00308      3.91364      8.23111        -0.148171      0.402663     -0.041197
Pb       0.09351      0.03725      8.28028        -0.428863      0.037059      0.027669
Pb       3.79958      4.00494     12.49018        -0.153803     -0.050259     -0.220364
Pb       3.82474     15.49357     12.37210         0.179165      0.715230      0.712154
Pb      15.55129      3.78093     12.28498        -0.190710      0.322225      0.449996
Pb      15.55593     15.59238     12.41105         0.079438      0.180869      0.257262
Pb       3.78691      7.78913      4.14176         0.636866      0.209791     -0.025497
Pb       3.76930      7.76803     16.56746         0.234921     -0.384703      0.277232
Pb      15.59014      7.84988      4.02311        -0.238656     -0.051877      0.599214
Pb      15.60607      7.79957     16.61243        -0.133280     -0.148586     -0.148211
Pb       4.01443      7.81666      8.26988        -0.393454      0.148324     -0.165729
Pb      15.58085      7.82677      8.30578         0.055997     -0.065803     -0.301306
Pb       3.80493      7.85601     12.54510        -0.280269      0.232667     -0.121602
Pb      15.54182      7.75470     12.43289        -0.231265     -0.282956      0.250182
Pb       3.94576     11.70974      4.17442         0.049898     -0.974368      0.538581
Pb       3.87709     11.67460     16.51313         0.001739     -0.000138      0.341591
Pb       0.02493     11.81875      4.14179        -0.281574     -0.393438      0.354785
Pb       0.06323     11.78899      0.08547        -0.288745     -0.482121     -0.491587
Pb       3.87919     11.66944      8.27228        -0.079116      0.065292      0.492684
Pb      15.44777     11.71468      8.26023         0.001945     -0.527094      0.305325
Pb       3.77540     11.82941     12.50321         0.338538     -0.679428      0.135506
Pb      15.53066     11.54487     12.37550        -0.321426      0.247662      0.122570
Pb       7.72247      3.87730      4.08682         0.328872      0.191125      0.664587
Pb       7.60867      3.69723     16.60768         0.465209      0.216654      0.384464
Pb       7.70054     15.58801      4.06758         0.628081     -0.612684      0.684123
Pb       7.76129     15.46334      0.03108         0.422579      0.127818     -0.371328
Pb       7.76400      3.92480      8.33870         0.231487      0.013704     -0.678423
Pb       7.82662     15.53373      8.44471         0.278593     -0.079485     -0.160165
Pb       7.77757      3.99162     12.49602         0.153377     -0.044252     -0.201656
Pb       7.89169      0.10151     12.51640        -0.042976     -0.064909     -0.258350
Pb       7.63044      7.79340      3.97383         0.705446     -0.008943      0.249335
Pb       7.86400      7.83558     16.53501        -0.092312     -0.194719      0.115000
Pb       7.86596      7.82575      8.41637         0.248302      0.093221     -0.796593
Pb       7.86534      7.75735     12.53993         0.257960      0.210785     -0.161316
Pb       7.73763     11.77807      4.04963         0.448274     -0.160107      0.252083
Pb       7.78987     11.55805     16.58974         0.403236      0.293451     -0.163897
Pb       7.62901     11.65686      8.33075         0.035940     -0.107841      0.401046
Pb       7.74940     11.62942     12.50552        -0.256822     -0.098975     -0.015892
Pb      11.69682      4.00893      4.23437         0.012985     -0.227719     -0.613327
Pb      11.76389      3.85955     16.53177        -0.320578      0.481864      0.460046
Pb      11.77369      0.20296      4.21524        -0.258606     -0.795312     -0.314523
Pb      11.68755     15.56186      0.00867        -0.078431     -0.248578     -0.261355
Pb      11.64680      3.86700      8.26172         0.511810      0.167113     -0.079039
Pb      11.50823     15.46977      8.20539         0.890006     -0.132371      0.647001
Pb      11.64793      3.82413     12.43173         0.355628      0.346366     -0.007619
Pb      11.81434     15.50980     12.41117        -0.780361      0.175834      0.646276
Pb      11.75639      7.69469      4.00523        -0.395536      0.461835     -0.069218
Pb      11.64808      7.73988     16.58836         0.295533      0.140503      0.057244
Pb      11.68184      7.84676      8.09051        -0.033503     -0.026080      0.786742
Pb      11.70943      7.71191     12.49507        -0.113727     -0.196837     -0.085062
Pb      11.59664     11.83255      4.29285         0.541329     -0.166713     -0.825280
Pb      11.87855     11.77582     16.59491        -0.119303     -0.210009      0.131380
Pb      11.70133     11.66594      8.23863         0.374388     -0.365671      0.137637
Pb      11.56970     11.62359     12.33891         0.813540      0.088935      0.748082
Ti       2.02380      1.94630      2.32921        -1.186093     -0.464989     -1.553363
Ti       1.92583      1.86777     14.78999        -0.520074      0.068580      0.391394
Ti       2.17243     13.53567      2.24029        -2.081200      0.726592      0.428415
Ti       1.96531     13.64047     14.65289         0.000786     -0.703943      0.045041
Ti      13.65539      1.90282      2.21582         0.584352      0.129478      0.137850
Ti      13.53205      1.98321     14.75001         2.027948     -0.593631     -0.797040
Ti      13.72391     13.64513      2.24745        -0.630554      0.306550      1.601160
Ti      13.70448     13.71281     14.62464        -0.148120     -0.506231     -0.542820
Ti       1.90333      2.02382      6.36162        -0.141597     -0.623963     -0.540663
Ti       1.95792     13.63405      6.43783        -0.193348     -0.065622      0.141672
Ti      13.58642      1.94888      6.32532         0.748832      0.041620      0.129387
Ti      13.68695     13.70929      6.32185        -0.254643     -0.674259     -0.120242
Ti       1.98751      1.87596     10.55215        -0.864648      0.833154      0.025496
Ti       1.86366     13.56612     10.48398         0.061820      0.242927      0.470377
Ti      13.59439      1.87088     10.40610         0.476166      0.207712     -0.539105
Ti      13.62427     13.64949     10.53565         0.247836     -1.051373      0.991731
Ti       1.95067      5.80986      2.23705        -0.496272     -0.263318     -1.246194
Ti       1.89901      5.74766     14.66672         0.317142      0.387915      0.572559
Ti      13.71488      5.83362      2.13128        -0.697176      0.061396     -0.182212
Ti      13.66894      5.89488     14.77843        -0.117789      0.385378     -1.303874
Ti       2.03058      5.89387      6.26668        -0.726324      0.240438      0.485980
Ti      13.72015      5.83524      6.22340         0.686443      0.071611      0.292541
Ti       1.91937      5.91121     10.46965        -1.061789     -0.669073      0.711464
Ti      13.61689      5.74789     10.40837         0.389681      0.497349      0.824510
Ti       1.90498      9.73455      2.25205         0.447977      0.048211     -0.671599
Ti       1.94007      9.75572     14.73685        -1.126167     -0.390909     -0.659298
Ti      13.59459      9.83198      2.27445        -0.112083      0.185949      0.149293
Ti      13.72563      9.79226     14.66241        -0.221082     -0.598643      0.453441
Ti       1.93827      9.70865      6.38469        -0.783987      0.001480      0.397085
Ti      13.65126      9.70100      6.33827         0.068455      0.679142     -0.237377
Ti       1.88198      9.74753     10.52855        -0.280984     -0.417625      0.335684
Ti      13.53200      9.61937     10.58911         0.814516      0.897092     -1.096185
Ti       5.86828      1.84432      2.29648        -0.105514      0.377464     -1.172247
Ti       5.79056      1.93723     14.62357        -0.368972     -0.702720      0.107829
Ti       5.83591     13.55341      2.12628         1.321985      0.601281     -0.236314
Ti       5.93820     13.66684     14.60167        -1.352445     -0.396497      1.771234
Ti       5.83362      1.86931      6.44967         0.452996      1.487586     -1.042249
Ti       5.83531     13.71802      6.51906         0.430892     -1.123761     -1.423552
Ti       5.89680      2.08891     10.55823        -0.049556     -1.334359      0.688606
Ti       5.88356     13.67062     10.66221        -0.550103     -0.793014     -0.442369
Ti       5.77607      5.74133      2.15863         0.486819      0.690625      1.328622
Ti       5.86351      5.82448     14.62592        -0.532041      0.155938      0.818075
Ti       5.97208      5.91693      6.36825        -0.181983     -0.518826     -0.332395
Ti       5.81313      5.92807     10.39401         0.122972      0.318806      1.554929
Ti       5.82070      9.74906      2.14311        -0.093972     -0.933098      1.086264
Ti       5.81385      9.74721     14.76280         0.403442     -0.282372     -1.192559
Ti       5.81339      9.74582      6.38140         0.365402     -0.362279     -1.347962
Ti       5.76443      9.73782     10.69241        -0.094029      1.102099     -0.514752
Ti       9.77199      1.93941      2.26265         0.310167     -0.647030     -0.268219
Ti       9.67022      1.96824     14.66025         0.070602     -0.660063     -0.683500
Ti       9.76038     13.67926      2.20794         0.820704     -0.231505      0.350839
Ti       9.79350     13.57363     14.67903         0.311069      0.647506     -0.173164
Ti       9.73212      1.88546      6.46878        -0.466421      0.119299     -1.046883
Ti       9.73393     13.49504      6.38485        -0.445141      1.513349     -0.349491
Ti       9.75511      1.96018     10.51699         0.334619     -0.702108      1.249499
Ti       9.71031     13.59029     10.64023         0.275860      0.827425      0.023574
Ti       9.73020      5.75555      2.14329         0.507317      1.412093      0.166832
Ti       9.72056      5.78867     14.72944         0.741779      0.684775     -0.339844
Ti       9.87368      5.78992      6.37330        -1.648290      0.613921     -0.344994
Ti       9.72115      5.82312     10.52564         1.018398      0.604729     -0.359138
Ti       9.78353      9.83035      2.14565        -0.008943     -0.510601      0.367213
Ti       9.85595      9.75953     14.69707        -0.034785     -0.710209     -0.364196
Ti       9.64845      9.73476      6.23493         0.453125     -0.492490      0.410397
Ti       9.63209      9.73648     10.51347         0.545622     -0.839368      0.471787
O       1.95347      1.97047      0.49669         0.403762     -0.492987      0.865149
O       1.89623      1.68541     13.05401         0.037738      0.558443     -1.393053
O       2.13271     13.49245      0.47086        -0.064763      0.060529      0.199907
O       1.91714     13.65528     12.89604         0.104312      0.057147     -0.212436
O      13.67171      1.90990      0.43693        -0.374548     -0.097246     -0.447271
O      13.67578      2.01286     12.98366        -0.103949     -0.103090     -0.129192
O      13.57789     13.65944      0.51178         0.015997      0.001175     -1.622549
O      13.62591     13.68924     12.82824         0.381155     -0.043072      0.973420
O       1.95615      1.92164      4.54302         0.356186     -0.190964      0.587543
O       1.90915     13.59206      4.62952         0.432767      0.321882      0.526591
O      13.63199      1.95604      4.48913         0.275591      0.230944      0.659783
O      13.75434     13.57910      4.55975         0.093732      0.355939      0.012021
O       1.86936      1.96479      8.76489         0.249250     -0.287291      0.099731
O       2.00795     13.56694      8.71945        -0.103672      0.219366     -0.035327
O      13.63066      1.78914      8.59887         0.003354      0.415039      0.630673
O      13.58456     13.62943      8.81434        -0.188600      0.251755     -1.588204
O       1.88982      5.71137      0.41851         0.222148      0.230442      0.686124
O       2.16598      5.75208     12.89082        -0.761349      0.045354      0.023827
O      13.70076      5.95356      0.31883        -0.053690     -0.546877      0.791253
O      13.69143      5.89706     12.99390        -0.474535     -0.279342     -0.242501
O       2.04616      6.01567      4.49559         0.013410     -0.607862     -0.202543
O      13.59329      5.82629      4.40566         0.128887     -0.114832      0.557557
O       1.78508      5.84166      8.71574         0.537714     -0.075565     -0.313022
O      13.77927      5.75179      8.66142        -0.393102      0.203141     -0.434302
O       1.94887      9.78232      0.43241        -0.201977     -0.128957      0.790413
O       1.83476      9.58525     12.93895         0.462020      0.323005      0.416906
O      13.66808      9.89370      0.51188         0.021918     -0.000910     -0.338352
O      13.67887      9.68213     12.87983         0.206067      0.217884     -0.103666
O       1.98679      9.60102      4.62566         0.117681      0.180199     -0.750525
O      13.66295      9.71427      4.58696        -0.140056      0.154422     -0.311850
O       1.86369      9.76490      8.77471         0.354230     -0.418918     -0.611637
O      13.49287      9.74783      8.77463         0.267717     -0.637563      0.020559
O       5.87718      1.94495      0.45610         0.106757     -0.192136      0.819438
O       5.89541      2.02279     12.84057        -0.041855      0.020624      0.135790
O       5.74137     13.65856      0.34788         0.013089     -0.180909      0.436409
O       5.90013     13.47231     12.87930         0.042365      0.383069     -0.963787
O       5.78522      1.84144      4.56994         0.133200     -0.099172      1.678058
O       5.93080     13.70002      4.62980        -0.179883     -0.245535      1.711455
O       5.90810      1.96528      8.77150        -0.435952     -0.222591     -0.074251
O       5.82095     13.46392      8.85643        -0.088544      0.508030     -0.415811
O       5.98388      5.66698      0.45873        -0.107733     -0.022687     -1.043763
O       5.90559      5.82363     12.82275        -0.363846     -0.040752      0.461530
O       5.80695      5.88010      4.59077         0.302586     -0.262869      0.138728
O       5.91202      5.94401      8.62177        -0.274781     -0.467304      0.414092
O       5.84579      9.60827      0.40430         0.164475      0.618309     -0.919179
O       5.77115      9.64071     12.92123         0.114040     -0.214517      1.013235
O       5.77603      9.72824      4.57811         0.187851      0.272386      0.250225
O       5.91474      9.79504      8.89757        -0.579183     -0.317057     -1.038697
O       9.68010      1.82692      0.48666         0.241295      0.062911     -0.104693
O       9.68517      2.09365     12.83313        -0.090235     -0.473930      1.224184
O       9.76616     13.76043      0.44647         0.208880      0.017031     -1.074088
O       9.85633     13.57955     12.91098        -0.616081     -0.323823     -0.517103
O       9.81294      1.93099      4.69567        -0.085674     -0.165797     -0.453073
O       9.64428     13.64893      4.61350        -0.041539     -0.726840     -0.019552
O       9.74512      1.73607      8.77739         0.291086      0.261815     -1.161808
O       9.81603     13.67683      8.87110         0.019767     -0.021082     -0.424930
O       9.87627      5.91174      0.35316        -0.795162     -0.463839      0.273452
O       9.84824      5.81428     12.92288        -0.318801     -0.430356     -0.337697
O       9.88530      5.65129      4.59853        -0.075057      0.160693      0.129123
O       9.72264      5.91257      8.74645         0.156358     -0.327892     -0.403960
O       9.75543      9.66807      0.34020         0.151318      0.098946     -0.016562
O       9.79476      9.74402     12.90513        -0.302129      0.019990     -0.178052
O       9.88519      9.94831      4.50056        -0.928515     -0.351328      0.386756
O       9.67479      9.71686      8.75272        -0.165549     -0.173654     -0.174328
O       3.96343      2.02865      2.59763        -0.196264     -0.657393     -0.240766
O       3.83549      1.96306     15.05073         1.383023      0.106066     -0.031984
O       4.02597     13.51513      2.71634        -0.662366     -0.043751     -0.579302
O       3.86746     13.36036     14.95157         0.253621      0.904359     -0.533564
O       0.09543      1.79001      2.59499        -0.253872      0.104675     -0.092638
O       0.01269      1.82306     15.16348        -0.417912      0.103878     -0.187001
O       0.04786     13.65086      2.44087         0.981916      0.381993      0.236677
O       0.03366     13.54896     14.94735        -0.282470      0.815196      0.618261
O       3.83598      1.82729      6.83802         0.902320      0.513224     -0.454522
O       3.90102     13.67160      6.78767        -0.088234      0.156540     -0.422356
O      15.56311      2.04492      6.65524         0.532702     -0.464499     -0.185984
O      15.57073     13.67455      6.85182         0.674696     -0.092590     -0.606211
O       3.86239      2.00006     10.82928         0.619586     -0.443110     -0.231271
O       3.89114     13.62645     11.06250        -0.248940     -0.608692     -1.151003
O      15.56044      1.81946     10.89405         0.382635     -0.037889     -0.423480
O      15.57320     13.76523     10.76784         0.455339     -0.217051     -0.000575
O       3.86443      5.75614      2.38038         0.475084     -0.149878      0.344462
O       3.91635      5.70394     14.97658         0.430569     -0.307570      0.074805
O      15.57369      5.91777      2.46427         0.788662     -0.073623      0.290585
O      15.60454      5.95873     14.92571         0.853990     -0.807027      0.231787
O       3.94002      5.96032      6.69895        -0.455069     -0.439019      0.183864
O      15.60275      5.84401      6.52178         0.267941     -0.465012      0.023895
O       3.85393      5.72552     10.76475         0.791263      0.417073     -0.509902
O      15.54146      5.87017     10.84603         0.475181     -0.594311      0.000769
O       3.94403      9.91928      2.43958        -0.211648     -0.411373      0.393951
O       3.85452      9.75900     15.06223         0.735461     -0.393640     -0.287368
O       0.05437      9.82820      2.71450        -0.134297     -0.527286     -0.904988
O       0.05087      9.62231     15.11406        -0.638323      0.482612     -0.346933
O       3.82734      9.62959      6.64732         0.973386     -0.158757      0.654735
O      15.54402      9.79263      6.73916         0.274827     -0.538425     -0.067500
O       3.79137      9.79828     10.96873         0.283943     -0.535513     -0.305663
O      15.57703      9.72112     10.83149        -0.388068     -0.456428      0.175673
O       7.82865      1.85655      2.65730        -0.224564      0.596207     -0.509773
O       7.74575      1.78890     14.98586         0.413111      0.136943     -0.076799
O       7.76136     13.64808      2.35339         0.117795      0.213543      0.589786
O       7.74615     13.61297     15.01799         0.813516     -0.016616     -0.028184
O       7.83656      1.89413      6.71250        -1.049804     -0.056872      0.134381
O       7.77715     13.46921      6.81999        -0.612561      0.777522     -0.123006
O       7.85608      1.86453     10.81366        -1.003277      0.212926      0.069895
O       7.75311     13.53226     10.82137         1.241382      0.404585      0.433676
O       7.79843      5.77696      2.64586         0.224819     -0.047335     -0.705067
O       7.84296      5.88949     14.86358        -0.918508     -0.360268      0.272287
O       7.87747      5.73155      6.73654        -0.680440      0.019405     -0.364488
O       7.85274      5.82822     10.82105        -1.533832      0.174464      0.016916
O       7.86106      9.73481      2.37715        -0.529848     -0.229096      0.525035
O       7.78781      9.65333     14.98278        -0.263003      0.065511      0.125470
O       7.72328      9.62750      6.57434         0.577116      0.996395      0.307367
O       7.72730      9.61638     10.92916         0.974732      0.308004      0.140728
O      11.77331      1.93742      2.53055        -1.003350     -0.013095     -0.137501
O      11.66525      2.02065     14.90072        -0.915740     -0.510153      0.566250
O      11.69574     13.55472      2.57027         0.084481      0.434492     -0.001297
O      11.75518     13.55633     14.94683        -0.211120      0.361275      0.459221
O      11.72768      1.99925      6.57469        -0.542223     -0.466318      0.655254
O      11.74978     13.53039      6.55301        -0.954263      0.282056      0.490970
O      11.73856      1.95968     10.82153        -0.774086      0.139531     -0.056899
O      11.74299     13.58714     10.93241        -0.959904     -0.025972     -0.294713
O      11.76359      5.78722      2.38330        -0.215753     -0.183880      0.373090
O      11.73269      5.79829     15.00036        -0.544430     -0.013122      0.269438
O      11.73863      5.78945      6.63607        -0.123696      0.107547      0.230498
O      11.69922      5.76093     10.77126         0.136558     -0.214373      0.140655
O      11.66696      9.87269      2.58310         0.895109     -0.204770     -0.396962
O      11.77050      9.64628     14.91940        -0.318270      0.611233      0.262204
O      11.63529      9.66127      6.69446        -0.048817      0.584404     -0.342367
O      11.66980      9.73405     10.85206        -0.522544     -0.068633      0.007529
O       1.90782      3.83217      2.55042         0.156317      0.760447      0.368219
O       1.85579      3.77518     15.13868         0.235237      1.233897     -0.894247
O       2.30456     15.51496      2.50821        -0.804864     -0.237025     -0.064839
O       2.03751     15.51617     15.18070        -0.182353     -0.486673     -0.201477
O      13.82674      3.88302      2.44471        -0.283617      0.023618     -0.190850
O      13.64537      3.89352     15.02160         0.258195     -0.035044      0.348768
O      13.67673      0.02094      2.59281        -0.069652     -0.546587     -0.029905
O      13.65699     15.60292     14.98430        -0.246162     -0.441830      0.239519
O       1.96674      3.91371      6.52336         0.357931      0.182318      0.540909
O       1.86870      0.04054      6.69340         0.118820     -0.719446     -0.004774
O      13.63056      3.93470      6.54570        -0.069865     -0.603951      0.240066
O      13.59432     15.60165      6.44306         0.215784      0.216721      0.453760
O       1.86023      3.83990     10.83101         0.176258     -0.216134      0.220779
O       1.98728     15.47425     10.86835         0.023249      1.290613     -0.535963
O      13.71090      3.80428     10.70570        -0.063360      0.329136      0.208388
O      13.52147      0.02050     10.91716         0.695247     -0.327108     -0.603513
O       2.03071      7.75675      2.47462        -0.154930      0.703014     -0.146946
O       2.01771      7.67406     15.03528         0.140338      0.279426     -0.121719
O      13.64870      7.90695      2.48905         0.012657     -0.835879     -0.070986
O      13.70549      7.84395     15.08824        -0.307918      0.038986     -0.121480
O       1.83693      7.75930      6.67261         0.278897      0.104896      0.409831
O      13.69756      7.73381      6.54200        -0.448033      0.376661      0.576540
O       1.76455      7.76567     10.86327         1.290880     -0.239856     -0.341815
O      13.63042      7.70532     10.89946        -0.267878      0.338051     -0.516923
O       1.93292     11.63771      2.64192         0.594936      0.930288     -0.193349
O       1.85603     11.62674     14.94540         0.260429      0.319033      0.259019
O      13.79950     11.76936      2.58975        -0.425356     -0.656240     -0.149165
O      13.74251     11.70789     15.01087        -0.125286     -0.169232      0.044956
O       1.95505     11.61772      6.67565         0.118030      1.264943     -0.084063
O      13.65367     11.67828      6.63128        -0.246389     -0.019050      0.404255
O       1.78159     11.65241     10.85672         0.604390      0.869399      0.112906
O      13.76252     11.63619     10.74453        -0.461422      0.484199      0.588784
O       5.82111      3.81131      2.60012         0.521231      0.481014     -0.117520
O       5.97779      3.79675     15.02269        -0.433279      0.779015     -0.558195
O       5.85539     15.54078      2.48475        -0.461370      0.138826      0.056078
O       5.66813     15.54375     14.86753         0.386250      0.170316      0.137356
O       5.80722      3.82391      6.73323        -0.023260     -0.130641      0.033437
O       5.92810     15.57914      6.88415        -0.382510     -0.027554     -0.227473
O       5.87665      3.93238     10.71080         0.154830      0.174334      0.029058
O       5.88287     15.55030     10.89606        -0.230401      0.509094     -0.174408
O       5.82690      7.76272      2.51995        -0.128380      0.044427     -0.363367
O       5.77096      7.67587     15.14765         0.140759      0.311853     -0.798125
O       5.93316      7.77807      6.64939        -0.405826      0.220254      0.480932
O       5.76415      7.81134     10.70992        -0.180891     -1.608490      0.402678
O       6.04651     11.68314      2.48982        -0.929743     -0.158797     -0.320717
O       5.95186     11.64544     14.98005        -0.346096     -0.746074      0.167795
O       5.72336     11.62086      6.75159         0.271285      0.539705     -0.247091
O       5.88206     11.63491     10.93064        -0.253608      0.090712      0.384246
O       9.79802      3.86280      2.51986        -0.302370     -0.341176     -0.090265
O       9.66886      3.84040     14.97469        -0.007283     -0.273546      0.280713
O       9.75793     15.55664      2.60890         0.143363      0.946055     -0.037973
O       9.66286     15.45919     14.89953         0.480147      1.524381      0.325833
O       9.77374      3.80830      6.77436         0.108022      0.514684      0.365292
O       9.71439     15.45298      6.77882        -0.039029      0.753810     -0.228174
O       9.69519      3.84773     10.76244         0.250849      0.180924     -0.069786
O       9.77818     15.54712     11.01700        -0.203975      0.208830     -0.433308
O       9.87222      7.71822      2.54057        -0.498131      0.006793     -0.207680
O       9.74029      7.76875     14.83761         0.193941     -0.084887      0.709489
O       9.62432      7.79139      6.56344         0.730794     -0.363591      0.185432
O       9.75830      7.76521     10.84082        -0.134424      0.217150      0.213504
O       9.76489     11.72639      2.34765        -0.574177     -0.209590      0.463769
O       9.74903     11.65445     14.94077        -0.241810      0.017394      0.557255
O       9.68500     11.69140      6.74520         0.319790     -1.349389     -0.171873
O       9.70780     11.66847     10.86073        -0.079532     -0.432419     -0.031120
