  # total energy = -7881.47030709 
CRSYTAL
PRIMVEC
    15.6080000000000005    0.0000000000000000    0.0000000000000000
     0.0000000000000000   15.6080000000000005    0.0000000000000000
     0.0000000000000000    0.0000000000000000   16.6239999999999988
PRESSURE
-0.226833 -0.521061 -0.078519 -0.052844 -0.054128 -0.051557
PRIMCOORD
320 1
Pb       3.78660      3.82002      4.08577         0.320855     -0.152968     -0.162607
Pb       3.75261      3.75432      0.01593         0.584037      0.615616      0.217922
Pb       3.91916     15.45339      4.28328         0.082359      0.659406     -0.365412
Pb       3.96086     15.56494      0.09649        -0.042400     -0.257064     -0.479017
Pb      15.53075      3.84387      4.15173         0.094389      0.018303     -0.283634
Pb      15.55747      3.95115     16.57529        -0.053365     -0.137667     -0.037823
Pb       0.12295      0.00124      4.24428        -0.300246      0.063103      0.168842
Pb       0.01727     15.54055      0.01884         0.239988      0.047001     -0.268069
Pb       4.00361      4.03638      8.33451         0.596952     -0.410270      0.116659
Pb       3.88683      0.10817      8.50500         0.382210      0.065179     -0.639298
Pb       0.09274      3.92873      8.21788        -0.186209      0.062275      0.461347
Pb       0.05469      0.09183      8.31130         0.394496     -0.537956     -0.119642
Pb       3.93023      3.96873     12.31601        -0.165590     -0.569715      0.942393
Pb       3.89635      0.04454     12.31243        -0.158133     -0.349747      0.657633
Pb      15.51210      3.73099     12.24019        -0.040899      1.146707      0.747378
Pb      15.43027     15.59679     12.35593         0.681866     -0.214753      0.353146
Pb       3.89519      7.69757      4.25021        -0.605592      0.011706     -0.795051
Pb       3.82084      7.82693     16.62062        -0.070909     -0.573519      0.528820
Pb      15.54696      7.78178      4.08442         0.198644     -0.017797     -0.090729
Pb       0.02508      7.79507      0.02534        -0.230262     -0.080650     -0.362365
Pb       4.01707      7.85092      8.24186        -0.199651     -0.194733     -0.219438
Pb       0.14524      7.85795      8.07119        -0.329823      0.094989      0.519878
Pb       3.74922      7.85000     12.51176         0.335038     -0.434799      0.367638
Pb       0.02387      7.75373     12.39481        -0.723541     -0.079531      0.749451
Pb       3.99181     11.63205      4.27101        -0.234454      0.040338     -0.641639
Pb       3.90654     11.64646     16.55747         0.032586      0.214849     -0.167873
Pb       0.06930     11.75716      4.21951        -0.307853      0.072794      0.021172
Pb       0.04901     11.69526      0.03956         0.143632     -0.057438     -0.372201
Pb       3.89360     11.49916      8.26247        -0.308690      0.503639      0.587382
Pb      15.48541     11.72257      8.37801         0.424292      0.169719     -0.637916
Pb       3.77884     11.78236     12.60392        -0.045873      0.021752     -0.288975
Pb      15.41537     11.63694     12.39539         0.244230     -0.217960      0.246094
Pb       7.79634      4.04954      4.11332        -0.296059     -1.125921     -0.000412
Pb       7.66391      3.68160      0.07958         0.014194      0.025397     -0.379682
Pb       7.77745      0.03015      4.11420         0.079952      0.074027     -0.073301
Pb       7.80578     15.38316     16.58575        -0.526001      0.908195      0.272689
Pb       7.81413      3.99225      8.13804        -0.440593     -0.555173      0.478965
Pb       7.74507     15.54251      8.42757         0.097638      0.511140     -0.276959
Pb       7.75714      4.17439     12.44484         0.106164     -2.035941      0.746208
Pb       7.82898      0.12714     12.46939         0.487936     -0.037778      0.222850
Pb       7.64029      7.77535      4.01195         0.327243     -0.008123      0.701414
Pb       7.92883      7.74614     16.58478        -0.640862      0.051117      0.365887
Pb       7.74392      7.79711      8.43686         0.432355     -0.081498     -0.192299
Pb       7.74639      7.89865     12.57689         0.377381     -0.124331     -0.300268
Pb       7.73254     11.70608      4.11243        -0.020889      0.395399     -0.424991
Pb       7.87157     11.49879      0.01688        -0.296572      0.152989     -0.071001
Pb       7.63437     11.60519      8.40001         0.871781      0.114358      0.469195
Pb       7.70247     11.70148     12.55313         0.069029      0.186256     -0.139328
Pb      11.58388      4.03623      4.07072         0.387873     -0.415194      0.202256
Pb      11.67600      3.70099     16.38022         0.195299      0.892417      0.949025
Pb      11.93250      0.22516      4.20565        -0.558704     -0.201927      0.076585
Pb      11.74490     15.55853      0.05131        -0.040823      0.226838     -0.541514
Pb      11.70539      3.69844      8.11531        -0.494804      0.106619      0.339906
Pb      11.67875     15.39039      8.23150        -0.484363      0.370048      0.162559
Pb      11.56471      3.92895     12.39960         0.301564     -0.487345      0.074880
Pb      11.89397     15.59265     12.52046        -1.126927     -0.102838     -0.333036
Pb      11.68496      7.87522      4.07598         0.284605     -0.197393      0.114156
Pb      11.65733      7.72830     16.55507         0.281637     -0.045018     -0.054066
Pb      11.72943      7.79582      8.13029        -0.755923      0.441858      0.313877
Pb      11.88506      7.52621     12.41401        -0.815094      1.454559      0.775427
Pb      11.50423     12.04030      4.16671         0.664457     -0.857832      0.564924
Pb      11.79468     11.78561      0.00267        -0.353089     -0.341305      0.028275
Pb      11.61561     11.52110      8.09987        -0.099717      0.456020      0.961897
Pb      11.59528     11.56524     12.45250         0.265296     -0.163880     -0.356178
Ti       1.90061      1.82622      2.17866         0.610207      0.505456      2.473856
Ti       2.00582      1.88868     14.53714        -0.987595      0.186868     -0.010973
Ti       1.89314     13.60130      2.26515         0.620237      0.286430     -0.878509
Ti       1.93593     13.72072     14.62249         0.060507     -0.589701      1.449351
Ti      13.67907      1.99030      2.14492         0.324800     -0.115302      0.171708
Ti      13.73227      1.89834     14.66947         0.100790      0.048424      0.236643
Ti      13.62442     13.69831      2.29661         0.855555     -0.532650      0.259268
Ti      13.64767     13.66588     14.75311         0.354803     -0.016427      0.183253
Ti       2.09771      1.97764      6.47313        -0.143419     -0.419491     -0.479924
Ti       2.05841     13.69402      6.46907        -1.501673     -0.161361      0.022735
Ti      13.76501      1.91108      6.46091        -0.521290      0.144419     -1.026824
Ti      13.65400     13.66585      6.36624         0.835024     -0.758119     -0.449306
Ti       1.92151      2.06245     10.43254         0.914987     -0.747320     -0.011931
Ti       1.86200     13.70347     10.51404         0.392381     -0.972558     -0.690327
Ti      13.58752      1.90832     10.38563        -0.595260      0.480083      0.553035
Ti      13.63217     13.54276     10.41897        -1.163350     -0.078599      0.632030
Ti       1.91121      5.82028      2.26675         0.775671      0.266801      0.339623
Ti       1.86204      5.77770     14.69537         0.396958      0.949128      0.306050
Ti      13.64435      5.84546      2.20672         0.254949      0.543636     -1.482763
Ti      13.63279      5.82001     14.64415        -0.386238      0.790227      0.139986
Ti       1.89245      5.83162      6.34981         1.136249      0.625365     -0.206379
Ti      13.58813      5.80934      6.48432         0.373861      0.203527     -1.218192
Ti       1.98015      5.88298     10.48791        -0.702387      0.117975     -0.082373
Ti      13.62478      5.84335     10.41107         0.851800     -0.515351      0.099115
Ti       2.01143      9.78824      2.26756        -0.167888     -0.767397      0.266367
Ti       1.87806      9.76187     14.61755        -0.277649      0.056144      0.315545
Ti      13.71763      9.82158      2.18030        -0.074020     -0.060584     -0.672381
Ti      13.54652      9.80498     14.69539         0.821015     -1.052462     -0.221294
Ti       1.92280      9.89155      6.32473        -0.049173     -0.995912      0.045391
Ti      13.65075      9.78406      6.22609        -0.021250     -0.277440      0.602906
Ti       1.99389      9.76086     10.55135        -0.939123      0.461541     -0.482029
Ti      13.65133      9.66576     10.40049        -0.683995      0.281190      1.491315
Ti       5.80248      1.88185      2.28725         0.457589      0.711728      0.522991
Ti       5.76626      1.89536     14.68397         1.134128     -0.213002     -0.420477
Ti       5.79254     13.65296      2.21832         0.414420     -0.377533     -1.110493
Ti       5.81667     13.63065     14.70739        -0.202846      0.272730     -0.547326
Ti       5.86525      1.91139      6.43297         0.813101      0.106317     -0.835023
Ti       5.82300     13.58436      6.53375         0.592029      1.490956     -0.486980
Ti       5.80876      1.84188     10.58551         1.200085      2.958461     -0.945941
Ti       5.78759     13.55386     10.54410         0.130002     -0.033676      0.189219
Ti       5.82117      5.78252      2.24274        -2.025552     -0.227382     -2.140348
Ti       5.68941      5.81089     14.77483        -0.067341     -0.403057      1.335189
Ti       5.74136      5.84236      6.27212         2.008249     -0.697368      1.566181
Ti       5.85130      5.83273     10.71837         0.199851     -0.368844     -1.803119
Ti       5.80429      9.65902      2.21260        -0.373131      0.109230     -1.071509
Ti       5.77414      9.60203     14.73042         0.458510      0.949016     -0.183147
Ti       5.92148      9.75382      6.34686        -0.739389     -1.249973     -0.832646
Ti       5.81024      9.68835     10.64479         0.667870     -0.454743     -0.629978
Ti       9.79362      1.94355      2.17512        -1.144428     -0.152247      0.295358
Ti       9.73565      1.85884     14.77641        -1.010911     -0.093489     -1.161745
Ti       9.72689     13.67479      2.16759        -0.854012      0.643526      1.099323
Ti       9.68685     13.65784     14.71856         0.186363     -0.382122     -0.853946
Ti       9.74366      1.93196      6.22209        -0.835173     -0.164907      0.563845
Ti       9.61347     13.67765      6.43377        -0.096228     -0.297461     -0.416546
Ti       9.73133      1.90139     10.46922        -0.807355     -0.350421      0.102788
Ti       9.72030     13.57694     10.53700         0.390328      0.484563     -0.541844
Ti       9.75917      5.90719      2.21646        -0.119747     -1.160343     -0.616495
Ti       9.63233      5.74579     14.73269         0.638410      0.178973      0.375441
Ti       9.71838      5.83416      6.29457        -0.731998      0.790728     -0.069281
Ti       9.77048      5.77993     10.44603        -1.053623      0.996621      0.191107
Ti       9.75490      9.75980      2.34550        -0.071146     -0.151453     -1.459991
Ti       9.79654      9.75443     14.76585        -0.699115     -0.273424      0.070861
Ti       9.62842      9.75199      6.30240         0.738651     -0.634430     -0.620554
Ti       9.73293      9.60997     10.67143         0.687689     -0.324323     -1.352296
O       2.10105      1.82422      0.49404        -0.329449      0.013885     -1.714765
O       1.91910      2.05391     12.72115         0.029840     -0.646598      1.311760
O       1.98819     13.66301      0.45466        -0.233917     -0.255710      0.866314
O       1.89482     13.67009     12.88131        -0.028096     -0.179465     -1.163194
O      13.72092      1.85302      0.37284        -0.294933      0.550755      0.400215
O      13.66263      1.78066     12.87104         0.441118      0.092949     -0.448675
O      13.71230     13.58258      0.51421        -0.493456      0.445961     -0.335738
O      13.77478     13.81153     13.00637        -0.141857     -0.078370     -0.940962
O       1.96844      1.81351      4.69782        -0.294113      0.249214     -0.351737
O       1.94889     13.68960      4.66753         0.152977      0.052608      0.122687
O      13.65647      1.94988      4.66552         0.327274     -0.187652     -0.659372
O      13.57571     13.56826      4.55430         0.233735      0.321758      0.347847
O       1.95673      2.00474      8.62455         0.135666     -0.461567      0.814553
O       1.75840     13.67308      8.72010         0.640097     -0.238006      0.113110
O      13.61178      1.95549      8.60755        -0.180082     -0.252671      0.866386
O      13.57643     13.51937      8.66769         0.118156      0.388018     -0.422305
O       1.95271      5.91725      0.51768        -0.514753     -0.370273     -1.013215
O       1.74945      5.92695     12.95278         0.542216     -0.648360     -0.900183
O      13.72755      5.88886      0.37017        -0.254492     -0.155132      0.976848
O      13.55885      5.79087     12.85345         0.195078     -0.273863     -0.141022
O       1.97201      5.91403      4.59101        -0.280092     -0.845193     -0.257314
O      13.69252      5.81415      4.70489        -0.024626      0.091879     -0.347738
O       1.89355      5.88712      8.70645         0.486681      0.446896      0.472857
O      13.71996      5.82395      8.64477        -0.474132      0.027562     -0.516554
O       1.96790      9.82529      0.49019         0.090218      0.076584     -0.464287
O       1.98094      9.73770     12.82211         0.077756      0.104374      0.406698
O      13.73613      9.80059      0.30164        -0.236806      0.050860      1.431503
O      13.50140      9.75962     12.92687         0.155232      0.490611     -0.130217
O       1.93632      9.86104      4.56853         0.184327     -0.052985     -0.302396
O      13.67785      9.65220      4.46921        -0.280553      0.539476     -0.132577
O       1.90746      9.71178      8.71011         0.279926     -0.134783      0.268466
O      13.68970      9.72275      8.66105        -0.162970     -0.126127     -0.471841
O       5.69273      1.90038      0.52247         0.163836      0.401756     -1.204203
O       5.67817      1.76983     12.89029         0.132913      0.134060      0.138157
O       5.87857     13.65785      0.40469        -0.493916      0.067607      0.808635
O       5.85625     13.73116     12.88718        -0.119408     -0.471021     -0.557082
O       5.95344      1.95328      4.64039        -0.218475     -0.454642     -0.072399
O       5.85911     13.62328      4.74675         0.058894     -0.114168     -0.744191
O       5.80488      2.04608      8.78921        -0.064290     -0.358577     -0.022688
O       5.88889     13.55732      8.76320        -0.689856     -0.014528      0.300919
O       5.59980      5.86450      0.37948         0.738153     -0.626652      1.050448
O       5.56358      5.76216     13.01588         0.738059      0.270084     -1.246808
O       5.82382      5.88318      4.55456        -0.206215     -0.199047     -1.079563
O       5.83007      5.73864      8.91927        -0.047305      0.377936     -0.573919
O       5.77640      9.69464      0.38463         0.082342      0.256887      0.077905
O       5.83068      9.64195     12.90926        -0.081729      0.077033     -0.340870
O       5.82399      9.63147      4.53013         0.230313      0.663143      0.969786
O       5.95978      9.65507      8.79234        -0.747400      0.003726     -0.033994
O       9.77164      1.88784      0.35747         0.264414     -0.033914      0.873864
O       9.64749      1.79145     13.00009         0.378755      0.460413     -0.413516
O       9.73667     13.69749      0.42258         0.149353      0.078503     -0.522686
O       9.58856     13.62232     12.92126         0.277275     -0.393746     -0.185623
O       9.69486      2.09727      4.43399         0.296597     -0.549215      0.807688
O       9.61048     13.47131      4.60335        -0.145029      0.167181      0.463033
O       9.73215      1.90204      8.68813         0.230358     -0.064012      0.337668
O       9.80660     13.74939      8.68869         0.055511     -0.039755      0.767025
O       9.64289      5.91112      0.42548         0.295845      0.030060      0.096759
O       9.77009      5.63334     12.95771        -0.095513      0.264592     -0.014143
O       9.79488      5.82092      4.48788        -0.104115     -0.312563      0.545802
O       9.57006      5.96714      8.69349         0.578893     -0.386861     -0.076213
O       9.62699      9.65133      0.51648        -0.426055      0.089041     -0.103885
O       9.84444      9.76636     13.01406        -0.385499      0.279914     -1.425766
O       9.56241      9.75602      4.46033         0.255282      0.321728      0.788388
O       9.64369      9.46214      8.88119         0.229707      0.443350     -0.351574
O       3.90806      1.82643      2.63446        -1.210709     -0.061991      0.095649
O       3.87745      1.77836     15.05667        -0.788022      0.421601     -0.510787
O       3.83981     13.78740      2.55549         0.855522     -0.241056      0.180610
O       3.90704     13.83917     14.93289        -0.392385     -0.574421      0.078705
O       0.02438      2.03221      2.46561        -0.790155     -0.424497      0.316386
O       0.01462      1.87899     14.99725         0.625946      0.442779     -0.285451
O      15.58278     13.54547      2.59099        -0.402232      0.054432      0.029135
O       0.02999     13.53462     15.12512        -0.425686      0.522636     -0.328479
O       3.97412      1.91890      6.70339        -1.041613      0.105727      0.260669
O       3.94649     13.55534      6.69352        -0.684666      0.099092      0.494102
O       0.01902      1.93376      6.74235         0.368856      0.102381     -0.049018
O       0.04463     13.43148      6.65700        -0.772119      0.687761     -0.100457
O       3.83006      1.89909     10.78271        -0.346558      0.031127     -0.145106
O       3.82799     13.60628     10.78681         0.463404      0.042322      0.163557
O       0.03508      2.00661     10.64326        -1.171289     -0.267355      0.102514
O      15.51138     13.48965     10.74096         0.445960      0.266846      0.366110
O       3.85224      5.79423      2.62266        -0.023473     -0.151762      0.180100
O       3.74283      6.02890     15.12816         0.527603     -1.062996     -0.890915
O      15.57365      5.82513      2.50178        -0.252632     -0.005461      0.513994
O      15.55254      5.81344     15.03563        -0.118430     -0.168183      0.183393
O       3.96000      5.90951      6.68872        -1.245626     -0.361900      0.230389
O       0.08783      5.85237      6.67954        -1.299004     -0.271948      0.003445
O       3.90764      5.86649     10.87852        -1.560783      0.414349     -0.207110
O      15.48977      5.80147     10.74440         1.199119     -0.176099      0.295855
O       3.89153      9.58441      2.57593        -0.104547      0.755667      0.170926
O       3.87270      9.78155     14.93325        -0.307540     -0.475301      0.115262
O       0.03197      9.77482      2.39442        -0.632822      0.038149      0.550705
O      15.58724      9.94930     14.87810         0.215594     -0.265305      0.173248
O       3.94479      9.84375      6.57700         0.106503     -0.465776      0.507165
O      15.58525      9.87371      6.47175         0.113751     -0.309054      0.584390
O       3.89684      9.58595     10.76961        -0.321291     -0.216590      0.092998
O      15.56102      9.79537     10.92222        -0.101756     -0.480649     -0.601013
O       7.78166      2.03448      2.40072         0.902111     -0.009148      0.154789
O       7.77667      2.01802     15.00491        -0.794843     -0.227985      0.366655
O       7.72309     13.63468      2.49397         0.475358     -0.001791      0.271395
O       7.76457     13.63207     15.02154         0.372014     -0.527191      0.126085
O       7.81553      1.99902      6.68576         0.786297     -0.391714     -0.004092
O       7.73593     13.63872      6.95266         0.763652     -0.086727     -0.789918
O       7.72655      1.98502     10.91730         0.474045     -0.230282     -0.221796
O       7.72003     13.52936     10.74029         0.369962      0.095777      0.268510
O       7.65515      5.86974      2.49229         1.949242     -0.663493      0.054676
O       7.73273      5.79454     14.97729        -0.072745     -0.039719     -0.188551
O       7.80166      5.80032      6.53449         0.071702     -0.093927      0.142744
O       7.80827      5.78340     10.91347         0.048255      0.384572     -0.075366
O       7.64552      9.64744      2.50296         1.045009      0.337001      0.086721
O       7.78727      9.69949     14.87067        -0.381644      0.419188      0.666583
O       7.77525      9.74899      6.75345         0.087533     -0.097856     -0.319403
O       7.77845      9.69921     10.83788        -0.219263      0.081004      1.122193
O      11.76757      1.87239      2.49888        -0.433807      0.308093     -0.157735
O      11.68725      1.84090     14.96003         0.720793     -0.166274      0.188609
O      11.66230     13.67984      2.60366        -0.191193      0.331571     -0.628939
O      11.68124     13.77546     15.01104         0.369404     -0.118906      0.250186
O      11.70149      1.83404      6.60879        -0.392969      0.046071      0.078991
O      11.73834     13.66439      6.58185        -0.761093      0.014418      0.233923
O      11.63553      1.88246     10.85574         1.360792     -0.089469     -0.402028
O      11.72370     13.79479     10.87890        -0.236167     -0.555348     -0.183517
O      11.72675      5.94062      2.54336        -0.194731     -0.190715     -0.201966
O      11.67354      5.88663     14.98670         0.028745     -0.601649      0.130973
O      11.66630      5.79250      6.66132         0.569464      0.165026      0.186689
O      11.64592      5.86623     10.78744         0.734228     -0.497262     -0.339775
O      11.59216      9.57399      2.32409         0.730541      0.452671      0.753849
O      11.64760      9.81076     15.08060         0.633063     -0.330685      0.386524
O      11.57815      9.70482      6.57775         0.710762      0.254091      0.054882
O      11.65111      9.68606     10.87969         0.824964     -0.092432     -0.256674
O       1.90361      3.82379      2.51882         0.365683     -0.046333      0.178728
O       1.94663      3.87015     14.98981         0.088450     -0.850795      0.141973
O       1.72856     15.49056      2.64378         0.731108      1.091484     -0.559741
O       1.88705     15.59919     14.99140        -0.192865      0.617421     -0.359680
O      13.65054      3.92580      2.48605        -0.063575     -0.322281      0.146362
O      13.65080      3.82535     14.86759        -0.048556      0.127540      0.454598
O      13.69638      0.04950      2.57999         0.103463     -0.611867     -0.135524
O      13.73870      0.01710     15.12729        -0.326704     -0.756743     -0.172810
O       1.98800      3.86534      6.79071         0.087231      0.967392     -0.726576
O       2.02367      0.02939      6.80030        -0.272535     -0.888500      0.009051
O      13.68997      3.82907      6.62398        -0.088696      0.994092      0.594771
O      13.82950     15.56320      6.67619        -0.544482     -0.576249      0.058163
O       2.04876      3.93795     10.65869        -0.618382      0.138402      0.298622
O       1.89970     15.53815     10.71348        -0.225027      0.844761      0.068857
O      13.59475      3.86133     10.79376        -0.234457     -0.733957     -0.279307
O      13.73745     15.56211     10.77975        -0.167800      0.646865     -0.513982
O       1.97674      7.73914      2.58595        -0.520813      1.010803      0.049599
O       1.81317      7.76605     14.98436        -0.082070      1.568345      0.098432
O      13.66868      7.82181      2.52519         0.163813     -0.059197     -0.104115
O      13.59946      7.79165     14.76802         0.184103      0.114434      0.971644
O       1.99617      7.79530      6.52085        -0.086380      0.615749      0.731637
O      13.69097      7.85146      6.65010        -0.168564     -0.469231     -0.050284
O       1.83571      7.76362     11.04019         0.672590     -0.069589     -1.441662
O      13.66253      7.75841     10.81189        -0.223195     -0.032747     -0.341509
O       2.01305     11.71658      2.70926         0.161245     -0.275800     -0.473479
O       2.07485     11.73327     14.94595        -0.014931     -0.254503     -0.071731
O      13.56271     11.71347      2.54775        -0.066456     -0.716929     -0.254169
O      13.49077     11.76828     14.92486         0.207933     -0.076711      0.269055
O       2.01455     11.72966      6.70401         0.238496     -0.333969      0.119380
O      13.55280     11.65375      6.76369         0.213588     -0.039176     -0.812357
O       1.97953     11.60231     10.79469         0.065646      0.529777      0.268284
O      13.56167     11.60141     10.79712        -0.011040      0.941382      0.048587
O       5.77201      3.83902      2.63893         0.033995      0.615500     -0.263987
O       5.68753      3.84490     14.94095        -0.112721      0.000759      0.537526
O       5.92565      0.02395      2.57118        -0.305237     -1.470879      0.233963
O       5.93624     15.58951     15.07619        -0.169430      0.363909      0.018227
O       5.83594      3.83261      6.67881        -0.214705      1.723204      0.140488
O       5.81169      0.00315      6.78643         0.156696     -0.867465      0.372695
O       5.78078      3.86823     10.94170        -0.151117      0.234302      0.373866
O       5.72347      0.05131     10.66133         0.198185     -2.847405      0.366411
O       5.80893      7.67517      2.47663        -0.318633      1.228790      0.361475
O       5.76438      7.75748     14.98196         0.268211      0.213751     -0.061430
O       5.87905      7.75052      6.66341        -0.220921      0.781304      0.201494
O       5.93436      7.68570     10.92043        -0.205924      1.321029      0.305952
O       5.77099     11.68310      2.44625        -0.222617      0.090223      0.610134
O       5.74898     11.73433     14.88761         0.150034     -0.539538      0.285390
O       5.91186     11.66047      6.72912        -0.120479     -0.584103     -0.092145
O       5.74350     11.55044     10.83161         0.120022      1.393935      0.359702
O       9.84536      3.91355      2.47086        -0.234427      0.008086     -0.230487
O       9.77340      3.81060     15.09216        -0.123713      0.926720     -0.242832
O       9.69533      0.00450      2.61398         0.174482     -0.029420     -0.490489
O       9.66431     15.52786     14.95670         0.034205      0.406031      0.611486
O       9.77392      3.88062      6.57250         0.292452      0.014198      0.226297
O       9.65622     15.55251      6.49063         0.213340      0.533394      0.291833
O       9.79993      3.87793     10.76569        -0.150011     -0.031630      0.137583
O       9.65294      0.00758     10.83604        -0.231766     -0.585302     -0.139828
O       9.67301      7.67009      2.66143        -0.152372      1.750438     -0.445696
O       9.70975      7.78662     15.07523         0.191943     -0.358716     -0.435065
O       9.78395      7.82498      6.61838        -0.366029     -0.372091     -0.309823
O       9.72079      7.70869     10.98815        -0.322124     -0.224727      0.159483
O       9.64793     11.72305      2.37159         0.183412     -0.475632      0.599007
O       9.80966     11.70389     15.09796        -0.424472     -0.025768      0.105320
O       9.68764     11.71463      6.70984        -0.048894     -0.864192     -0.061599
O       9.82466     11.65424     10.69392        -0.317440      0.905934      0.709136
