  # total energy = -7879.54335234 
CRSYTAL
PRIMVEC
    15.6080000000000005    0.0000000000000000    0.0000000000000000
     0.0000000000000000   15.6080000000000005    0.0000000000000000
     0.0000000000000000    0.0000000000000000   16.6239999999999988
PRESSURE
-0.841892 -0.661894 -1.11603 -0.319331 0.413714 -0.06765
PRIMCOORD
320 1
Pb       4.01223      3.89453      4.11050         0.111975      0.088106      0.297474
Pb       4.08884      4.04144      0.15318        -0.179764     -0.269525     -0.469279
Pb       3.90057      0.03412      3.96783        -0.206152     -0.300971      0.250493
Pb       3.77478     15.57308     16.58865         0.272890     -0.083178      0.012642
Pb       0.08500      3.82804      4.18803        -0.408008     -0.000437     -0.736911
Pb      15.53413      3.79143     16.59715         0.227441     -0.124009     -0.042323
Pb      15.56173     15.50093      4.00854         0.038434      0.245974     -0.357398
Pb      15.54142     15.57218     16.56462         0.373304     -0.147934      0.326601
Pb       3.64739      3.72688      8.32618         0.923553      0.522514     -0.517489
Pb       3.86625      0.05140      8.21291        -0.024451     -0.239660     -0.282973
Pb      15.48165      3.79745      8.29535         0.136115      0.081929     -0.033089
Pb       0.05652     15.57071      8.22424        -0.323066     -0.208967     -0.574403
Pb       3.82596      3.90702     12.47116        -0.331146     -0.040391     -0.208660
Pb       3.83364     15.44356     12.41788         0.086346     -0.116758      0.423968
Pb       0.04384      3.90576     12.49833        -0.274080      0.196736     -0.087930
Pb       0.02161      0.26680     12.69317         0.067372     -0.087532     -0.203401
Pb       3.79458      7.89722      4.20778         0.225174     -0.012825     -0.440830
Pb       3.84215      7.74578     16.55593        -0.072688      0.362421      0.502740
Pb       0.14077      7.89775      4.25141        -0.372976     -0.039364     -0.341097
Pb       0.02195      7.74982     16.59310        -0.317185     -0.152982     -0.762428
Pb       3.92733      7.66882      8.24856        -0.137562      0.384774     -0.137116
Pb      15.30238      7.72066      8.63585         0.204506      0.035777     -0.401567
Pb       3.93029      7.84952     12.41254         0.158902      0.106045     -0.345040
Pb      15.53972      7.95770     12.60394        -0.416689     -0.524234     -0.288213
Pb       3.81309     11.69757      4.04081         0.151862     -0.308428     -0.228609
Pb       3.86339     11.69055     16.50048         0.156873     -0.081263      0.493114
Pb      15.55123     11.67130      4.03253        -0.032441     -0.116270     -0.042878
Pb      15.54992     11.82260     16.57172        -0.293438     -0.095918     -0.390494
Pb       3.82810     11.71226      8.10054         0.235925     -0.136906      0.959678
Pb      15.59668     11.61462      8.27690         0.000542      0.360250     -0.144135
Pb       3.99679     11.63437     12.30429        -0.371490      0.286916      0.115823
Pb       0.20084     11.60850     12.36970        -0.102501     -0.262705      0.676346
Pb       7.81178      3.66414      4.19660        -0.354285      0.537064     -0.302423
Pb       7.81091      3.99983      0.03894        -0.358374      0.393006     -0.272604
Pb       7.71514     15.45228      4.04243         0.306161      0.206130      0.174595
Pb       7.86359      0.18566      0.09576        -0.475091     -0.675054     -0.425234
Pb       7.59255      3.92232      8.38863         0.743440     -0.497141     -0.269886
Pb       7.89709     15.56846      8.28368        -0.033852      0.203456     -0.130366
Pb       7.70858      3.71476     12.43035         0.542484     -0.135563     -0.328011
Pb       7.64814     15.54670     12.54038         0.422608     -0.033669     -0.515911
Pb       7.74487      7.84340      4.17657         0.101769      0.344906     -0.169913
Pb       7.68931      7.92974     16.57965         0.465316     -0.217869      0.153865
Pb       7.83828      7.72763      8.21825         0.054248      0.139391      0.074557
Pb       7.77452      7.61289     12.42862        -0.138767      0.478078     -0.449747
Pb       7.96156     11.73978      4.28619        -0.272722     -0.367232     -0.513800
Pb       7.60889     11.74204     16.58408         0.432251      0.400153      0.254474
Pb       7.67900     11.75678      8.15861         0.638219     -0.243539      0.463221
Pb       7.72118     11.50060     12.39369        -0.284584      1.123605     -0.139633
Pb      11.87631      3.83436      4.40051        -0.405833     -0.089875     -0.833439
Pb      11.79940      4.08271      0.20446        -0.178594     -0.196131     -0.638398
Pb      11.56098     15.43526      4.17382         0.111319      0.185147     -0.152974
Pb      11.57934     15.50016      0.03130        -0.170168     -0.143158     -0.460020
Pb      11.73938      4.15453      8.47877         0.127871     -0.684949     -0.233662
Pb      11.64495      0.17150      8.31685         0.301067     -0.290572     -0.445827
Pb      11.81472      3.81954     12.63980         0.079713      0.143613     -0.980238
Pb      11.71244     15.59287     12.43825        -0.154539      0.170223     -0.202548
Pb      11.77418      7.62788      4.14847        -0.334617      0.579362     -0.180392
Pb      11.48648      7.80672      0.02491         0.216685      0.079459     -0.141744
Pb      11.58707      7.88902      8.31744         0.253587     -0.029713      0.206797
Pb      11.43491      8.00040     12.69083         1.087497     -0.785674     -0.920670
Pb      11.76869     11.29124      4.25362        -0.003163      0.422359     -0.038137
Pb      11.73726     11.74490     16.52001        -0.292019      0.120624     -0.319621
Pb      11.97263     11.96621      8.52992        -0.525963      0.024287     -0.343368
Pb      11.56091     11.90171     12.38152         0.732155     -0.916168      0.900600
Ti       1.92231      1.95372      2.12474        -0.887042     -1.091765     -0.812898
Ti       1.96985      1.89780     14.84460         0.361323     -0.063718     -0.422281
Ti       1.88950     13.63363      2.12852         0.123870      0.135175     -0.472334
Ti       1.97352     13.52087     14.76879        -0.627666      1.253710     -1.609600
Ti      13.52037      1.90785      2.06675         0.994515     -0.578869      1.730497
Ti      13.46938      1.91251     14.78579        -0.066247      0.244464     -0.780413
Ti      13.51232     13.55161      2.16001         1.163805      0.869379     -0.212418
Ti      13.60095     13.72362     14.58705         0.353709     -1.971170      0.057019
Ti       1.92597      2.05660      6.11996         0.272645     -2.292185      0.312160
Ti       1.96363     13.67863      6.29452        -0.905249      0.121261      0.272921
Ti      13.69166      1.87655      6.22004        -0.699870     -0.258382      0.765578
Ti      13.65633     13.67347      6.26077        -0.139808     -0.460789      0.247984
Ti       1.94813      1.90014     10.50863        -0.273929      0.606066      2.066663
Ti       1.87225     13.69399     10.52333         1.685791     -1.128395     -0.044623
Ti      13.66079      1.83628     10.50110         0.046424      0.777979      0.337650
Ti      13.85356     13.59936     10.66014        -1.539002      0.499152     -1.073373
Ti       1.95524      5.74791      2.22035         0.369463      0.860718     -0.767579
Ti       1.98348      5.74416     14.82831        -0.853432     -0.138042     -0.674851
Ti      13.71478      5.83222      2.16003        -0.338889     -0.119319      0.720864
Ti      13.64712      5.83289     14.63172         0.317366      0.662733     -0.648489
Ti       1.96680      5.88276      6.29028         0.371455      0.251204      1.286507
Ti      13.75743      5.74482      6.34827         0.145424      0.779352      0.119143
Ti       2.07205      5.81394     10.35096        -0.862386      0.144525      0.392631
Ti      13.74351      5.75346     10.58083        -0.824020      0.494655      1.581453
Ti       1.85831      9.65105      2.04647         1.252545      0.652202      1.010217
Ti       1.91796      9.70915     14.65547        -0.277144     -0.059363     -0.272432
Ti      13.65593      9.63548      2.00828        -0.668261      0.141476      1.074149
Ti      13.56227      9.78519     14.53532         1.426230      0.362291     -0.028552
Ti       1.90864      9.78563      6.35248         0.155537     -0.552133     -0.468996
Ti      13.64263      9.67919      6.48998        -0.086196      0.231094     -1.045632
Ti       1.97264      9.61376     10.45369         0.459888      0.589845      1.002483
Ti      13.57170      9.73524     10.54187        -0.041957     -0.616087      0.498307
Ti       5.81881      1.87660      2.14686         0.042685      0.317972      0.481616
Ti       5.81567      2.01213     14.71252        -0.401189     -0.554044      0.839270
Ti       5.74284     13.69345      2.05071         1.017484     -0.672330      0.386143
Ti       5.82926     13.71650     14.62669        -0.016537     -0.041578      0.470198
Ti       5.83946      1.97180      6.39608        -0.062447      0.102142     -0.688859
Ti       5.83396     13.74076      6.30013        -0.297907     -0.267249     -0.105522
Ti       5.80531      1.84612     10.48412         0.646317      0.447013     -0.720243
Ti       5.86603     13.68951     10.36040         0.084213     -1.045174      0.837160
Ti       5.88603      5.88446      2.34793         0.071419      0.093948     -0.094216
Ti       5.84245      5.96585     14.53039         0.511144     -1.399376      0.037934
Ti       5.90172      5.83512      6.39854        -0.236415     -1.553381     -1.485282
Ti       5.92076      5.75098     10.39816        -0.875287      0.982619      1.326036
Ti       5.74854      9.80459      2.11540         0.562582     -0.240487      0.536821
Ti       5.78355      9.78121     14.66708        -0.236835      0.519663     -0.434208
Ti       5.79809      9.82334      6.33080         0.039583     -0.162277     -0.433556
Ti       5.88295      9.70706     10.38952        -0.817222      0.214464     -0.420431
Ti       9.70441      1.87542      2.24148         0.305215      0.474823      1.899779
Ti       9.61694      1.98283     14.55462         0.949414     -0.577149     -0.832131
Ti       9.66703     13.57095      2.16312        -0.071412     -0.609662     -0.072936
Ti       9.67302     13.67116     14.58289         0.337933      0.077542      0.330984
Ti       9.69029      1.92799      6.33691         0.768660     -0.953389      0.165239
Ti       9.74371     13.58187      6.39101         1.428326      0.162282     -0.746427
Ti       9.80134      1.99805     10.42129        -0.582917     -0.219594      0.451135
Ti       9.78230     13.66443     10.46656        -0.682898     -0.343075     -0.583395
Ti       9.72651      5.80339      2.27075        -0.313645      0.011103      1.168571
Ti       9.76471      5.80577     14.48554         0.102423      0.274779      1.266746
Ti       9.82160      5.68706      6.32981        -0.641330      0.550858      0.996846
Ti       9.80142      5.85470     10.42143         1.190451      0.033949      0.189455
Ti       9.69579      9.72920      2.25725        -0.296492     -0.079025      0.171883
Ti       9.66470      9.78964     14.63409         0.261462     -0.647213      1.097826
Ti       9.70588      9.68659      6.42685         0.369152      0.380366     -0.507179
Ti       9.70098      9.80362     10.43783         0.599118     -0.397667     -0.900365
O       1.94173      1.82364      0.28447         0.112514      0.108837      0.610869
O       1.91103      2.08446     13.00275         0.078021     -0.463044     -0.624372
O       1.88164     13.66546      0.30915        -0.208471     -0.462957      0.340994
O       2.03869     13.57147     12.97237         0.173339      0.241889     -0.662387
O      13.49259      1.86793      0.27970        -0.140496     -0.210170     -0.154728
O      13.60741      1.78512     12.94701         0.122936      0.346548      0.472107
O      13.75013     13.54575      0.33086        -0.364629     -0.056833      0.589434
O      13.43386     13.60085     12.80498         0.594474      0.483859     -0.332346
O       1.88526      1.93413      4.32017         0.251449      0.238645      0.689946
O       2.03408     13.56869      4.53679        -0.060190      0.054369     -0.864743
O      13.67943      1.97084      4.42880         0.293429      0.389086      0.501384
O      13.57001     13.59813      4.47429         0.005498     -0.021425     -0.085744
O       1.92031      1.83638      8.81876         0.150096     -0.010887     -2.041000
O       1.72663     13.55081      8.74872         0.202016      0.579994      0.339404
O      13.74370      1.91300      8.72353         0.064314      0.081895     -0.078588
O      13.81948     13.62197      8.79939         0.168484     -0.211556      0.578829
O       2.12606      5.89560      0.38359        -0.229958     -0.473232      0.832254
O       1.81466      5.56753     13.06461         0.723592      0.186747     -0.408351
O      13.44759      5.88691      0.40212         0.310638     -0.154328     -0.332073
O      13.78162      5.76347     12.78591        -0.131105     -0.165958      1.208644
O       1.93348      5.73973      4.52886        -0.276293     -0.006592     -0.911222
O      13.85422      5.62823      4.56300        -0.584815      0.300824     -0.367333
O       2.10054      6.01039      8.56832        -0.166129     -0.420186      0.452407
O      13.67954      5.69737      8.78611         0.085006     -0.218024     -1.211789
O       1.97405      9.57701      0.29170        -0.034295      0.169217     -0.164839
O       2.09361      9.81284     12.85972        -0.420557     -0.748028      0.237039
O      13.62648      9.66542      0.26242         0.133324      0.094184     -0.186716
O      13.68494      9.65418     12.70453        -0.232448     -0.148485      0.983707
O       1.91151      9.72116      4.51159        -0.293696      0.289541     -0.055633
O      13.64192      9.71004      4.63502         0.443225     -0.307192      0.412367
O       1.97867      9.52247      8.70318         0.050906      0.311529     -0.330156
O      13.60288      9.52081      8.69559         0.469597      0.691194     -0.176273
O       5.94660      1.89528      0.37603        -0.142525      0.419794     -0.472133
O       6.06438      1.93635     12.95868        -0.481250      0.105213     -1.699857
O       5.88547     13.71032      0.29009        -0.103101     -0.307671      0.139159
O       5.79849     13.63799     12.83255         0.095358      0.219169      0.176673
O       5.84957      1.93733      4.57360        -0.046703     -0.053253      0.580684
O       5.75232     13.72524      4.51178         0.014942     -0.226446      0.536750
O       5.75494      1.90073      8.67137         0.215432     -0.084968      0.517690
O       5.84628     13.72386      8.56672         0.219877     -0.259650      0.331872
O       5.87738      5.72017      0.50894        -0.035118      0.108877     -0.410609
O       5.89510      5.86058     12.72433         0.131628     -0.012874      0.917343
O       6.07257      5.68027      4.55265        -0.778088      0.126497      0.400821
O       5.78454      5.82741      8.64816         0.272217     -0.174452     -0.543776
O       5.73925      9.61787      0.28931         0.516521      0.175758      0.420534
O       5.83859      9.80340     12.86754         0.241725     -0.127966      0.277373
O       5.89503      9.85738      4.54330        -0.345453     -0.563663      0.209026
O       5.75456      9.74975      8.60373         0.263025     -0.077172      0.016106
O       9.73627      1.88245      0.51785        -0.142012      0.368448     -1.581792
O       9.64567      1.78428     12.74365         0.019688      0.249814      1.294742
O       9.69311     13.41868      0.36263        -0.060785      0.104083      0.422463
O       9.88833     13.74447     12.78995        -0.278176     -0.300959      0.406313
O       9.63244      1.72052      4.52035         0.289825      0.021056      0.392622
O       9.84747     13.71460      4.50456        -0.385590     -0.081012      0.710028
O       9.84322      1.92466      8.59001         0.097618      0.081091      0.918501
O       9.74793     13.40443      8.62349         0.017019      0.445187      0.894956
O       9.76278      5.83469      0.51224         0.269197     -0.277962     -0.888422
O       9.73751      6.13243     12.76908         0.180419     -0.293120     -1.218543
O       9.81853      5.94609      4.61354        -0.334422     -0.243458     -1.038288
O       9.79288      5.72000      8.59335         0.548717     -0.076944      0.535646
O       9.69729      9.74746      0.46358         0.084794     -0.090714     -0.277572
O       9.70335      9.44003     12.87824        -0.584796      0.931143     -0.732553
O       9.69263      9.63451      4.57533         0.004487      0.162948      0.720353
O       9.69357      9.82408      8.61836         0.090940      0.045238      0.446243
O       3.83693      1.76241      2.35278         0.777732      0.314009      0.201090
O       3.99287      1.70290     14.99012        -0.883407      0.744071     -0.215786
O       3.89797     13.85801      2.29759        -0.742035     -0.734452      0.502118
O       3.84781     13.56850     15.01477         1.001946      0.250963      0.080481
O       0.01728      1.98173      2.27422        -0.837734      0.116091      0.307438
O      15.56385      1.83617     15.03465        -0.322385      0.279631     -0.240108
O       0.03268     13.52502      2.44371        -0.521402     -0.159281      0.396858
O      15.58731     13.55330     14.84983        -0.748169      0.424910      0.289021
O       3.87817      2.02574      6.58933        -0.166881     -0.434367      0.074121
O       3.83678     13.56085      6.66251         1.140275      0.467622     -0.051928
O       0.06798      1.90465      6.49503        -0.553713     -0.189189      0.341710
O      15.57567     13.81054      6.45665         0.187180     -0.684742      0.370338
O       3.97915      1.95402     10.83416        -0.500106     -0.248495      0.286651
O       3.97973     13.73304     10.75844        -0.907916     -0.258609     -0.226558
O       0.00539      2.00098     10.85770         0.949206     -0.379313      0.132126
O       0.09568     13.62638     11.05302        -0.547608      0.150595     -0.288346
O       3.91951      5.88039      2.63038        -0.276868     -0.593833     -0.116295
O       3.95598      5.92811     14.96055         0.576321     -0.112561     -0.331132
O       0.02082      5.76936      2.42497         0.252328     -0.221345     -0.173278
O      15.56293      5.76711     15.14806         0.791053     -0.850272      0.042945
O       3.90071      5.54674      6.65238        -0.094707      0.835914     -0.511584
O       0.05534      5.73806      6.65172         0.262875      0.381555      0.132185
O       3.96135      5.80903     10.85598         0.659604     -0.072097     -0.194826
O       0.06528      5.71758     10.66658         1.167615     -0.112601      0.043928
O       3.89532      9.57850      2.54123        -0.313390      0.389012     -0.267312
O       3.87318      9.64840     14.91745         0.599440      0.001112      0.131871
O       0.00425      9.79055      2.29627        -0.721903     -0.232607      0.453690
O      15.59805      9.71886     14.74563         0.211728      0.030568      0.443150
O       3.85880      9.94156      6.51750         0.395747     -0.611195      0.224687
O       0.08731      9.75399      6.66997        -1.205688     -0.510518      0.132523
O       3.98320      9.75786     10.78081        -0.675803     -0.567813      0.130623
O       0.03396      9.64397     10.83996         1.004649     -0.218533     -0.412022
O       7.73538      1.74094      2.47285         0.888605      0.905990      0.072700
O       7.72386      2.03818     14.97583         1.562951     -0.116917      0.546215
O       7.68962     13.60003      2.39023         0.911441     -0.560699      0.458466
O       7.80628     13.60228     14.86963         0.118935     -0.759322     -0.092632
O       7.86409      1.88865      6.73675        -0.899286     -0.159115     -0.113494
O       7.83886     13.62042      6.59757        -1.490818      0.789869     -0.100011
O       7.89220      1.80840     10.75300        -0.636444      0.169349     -0.192508
O       7.83966     13.64792     10.80056        -0.355311     -0.106323     -0.286756
O       7.75219      5.59058      2.44431         1.076971      0.582028      0.268996
O       7.91125      5.83604     14.76273        -1.557687     -0.031970      0.754617
O       7.87329      5.75236      6.73387        -0.385593      0.302887     -0.005565
O       7.90883      5.89806     10.59443        -1.162964     -0.028151      0.482282
O       7.70519      9.82166      2.54215         0.579566     -0.244001     -0.368546
O       7.78794      9.84826     15.03640         0.160678     -0.325630     -0.341307
O       7.68514      9.58336      6.70188         0.763591      0.206236     -0.299204
O       7.82178      9.84265     10.83175        -0.078329     -0.714920     -0.481433
O      11.70108      1.75408      2.60307        -0.633695      0.265134     -0.645948
O      11.56520      1.97143     14.86968         0.356865     -0.551203      0.173428
O      11.70905     13.77300      2.20543        -0.622976     -0.160108      0.403600
O      11.61853     13.64764     15.05503         0.096259      0.155186     -0.031163
O      11.82151      1.92726      6.57663        -0.436663     -0.072581     -0.268742
O      11.70616     13.56708      6.71615         0.531352     -0.164009     -0.131990
O      11.70945      1.78686     10.79802         0.401447      0.617927     -0.129091
O      11.80723     13.41486     10.72515        -0.230671      0.712788     -0.601772
O      11.75283      5.85194      2.62626        -0.354176     -0.321928     -0.253504
O      11.71592      5.76562     14.84140        -0.166961      0.413068      0.186622
O      11.75571      5.67435      6.53834         0.158617      0.206533      0.264374
O      11.72008      5.68862     10.73852        -0.151320      0.041576     -0.130707
O      11.67333      9.58840      2.41576         0.757880      0.250074      0.374399
O      11.77827      9.61256     14.86726        -0.815766     -0.129351      0.089493
O      11.70773      9.71690      6.61770        -0.228670      0.120137      0.108372
O      11.72897      9.82246     10.74566        -0.438409     -0.294997      0.090960
O       1.98290      3.83298      2.32439         0.362134      1.050060      0.347752
O       2.12330      3.76619     15.08715        -0.254940      1.169884      0.534408
O       1.83496     15.54301      2.36814        -0.008787     -0.077167      0.495697
O       1.93520     15.53822     15.00673        -0.207095      0.079219     -0.233647
O      13.55879      3.83967      2.20443        -0.078315      0.093797      0.446900
O      13.52732      3.84271     15.02899         0.534215     -0.144696      0.034692
O      13.79619     15.56601      2.49766        -0.447912     -0.178070     -0.603887
O      13.48326     15.50028     14.97858         0.453729      1.537642      0.139756
O       1.88565      3.79359      6.57514        -0.029651      1.170851      0.259240
O       2.00498     15.57192      6.67628         0.111953      0.510320     -0.170332
O      13.76385      3.86536      6.67240        -0.136180     -0.641394     -0.130971
O      13.65036     15.57143      6.61076         0.001471      0.326812     -0.218588
O       2.23949      3.90922     10.51024        -0.832072     -0.475295      0.938929
O       1.98914     15.59985     10.84194        -0.173580     -0.084703      0.117112
O      13.69547      3.79846     10.96878        -0.378587     -0.337672     -0.465792
O      13.74201     15.56481     10.85955         0.124022     -0.423948      0.041893
O       1.92772      7.75868      2.46481        -0.346976     -0.137351      0.480111
O       1.91922      7.69811     15.01236        -0.070618      0.519287     -0.378159
O      13.73705      7.75197      2.50621         0.085889      0.341651     -0.110258
O      13.88242      7.68561     14.87024        -0.827538      0.798185     -0.201273
O       2.08785      7.83656      6.36606         0.143564     -1.358898      0.333334
O      13.69591      7.70139      6.78764         0.035944     -0.177256     -0.570953
O       2.19650      7.68186     10.90197        -0.972133      0.642004     -0.396240
O      13.77442      7.69800     10.73701         0.056927      0.095558     -0.042565
O       1.99635     11.63457      2.35388         0.349935      0.088726      0.184485
O       1.93476     11.63244     15.03491         0.023935     -0.626288      0.174111
O      13.57875     11.65299      2.49229         0.029850     -0.602234     -0.242029
O      13.55887     11.75568     14.81276         0.030536     -1.533206      0.554769
O       1.88525     11.72263      6.70008        -0.211025      0.040198     -0.039470
O      13.75641     11.63470      6.65750        -0.045077      0.489653      0.362017
O       2.01130     11.62142     10.85605        -0.229298      0.438386     -0.666956
O      13.79584     11.59135     10.71254         0.352482      0.930855      0.000486
O       5.76414      3.72079      2.59480         0.057640      0.752279     -0.581258
O       5.75073      3.92613     14.95717         0.274906      0.567341     -0.007525
O       5.89787     15.59468      2.47967        -0.498679     -0.520116      0.082120
O       5.89590     15.52124     14.92519         0.242628      0.639188     -0.138370
O       5.96919      3.85076      6.73150        -0.111306     -0.443282     -0.116289
O       5.80406      0.03659      6.62030         0.012701     -0.806690      0.131447
O       6.02185      3.85890     10.68388        -0.159196      0.086967      0.156566
O       5.87145     15.57463     10.73492         0.146760      0.261503      0.333873
O       5.91245      7.76655      2.48092         0.254820     -0.260953      0.178806
O       6.05090      7.83057     14.81092        -0.454427     -0.735567      0.215998
O       5.76220      7.63082      6.53141        -0.130329      1.651791      0.250945
O       5.89379      7.82883     10.63432         0.093304     -0.901654      0.489843
O       5.65957     11.66652      2.31738        -0.158314      0.587708     -0.150613
O       5.79905     11.70260     15.03816        -0.006111     -0.489334     -0.250413
O       5.88556     11.70292      6.56243         0.007524      0.714927      0.231903
O       5.80624     11.66451     10.78033         0.755528      0.813146     -0.364252
O       9.69955      3.83677      2.62609         0.545257     -0.379369     -0.386002
O       9.77419      3.89627     14.60182        -0.403824     -0.084368      0.494793
O       9.59022     15.44509      2.38419         0.613563      0.708830      0.058285
O       9.60274     15.58911     14.98828         0.402155      0.138430      0.011613
O       9.80494      3.75909      6.44159        -0.019840      1.231110     -0.033619
O       9.83659     15.50742      6.77671        -0.267336      0.565724     -0.168666
O       9.78958      3.85187     10.84693        -0.135334      0.000562     -0.292921
O       9.93037     15.47172     10.68691        -0.227024      0.613533     -0.520264
O       9.70492      7.78388      2.57178        -0.343546     -0.736945     -0.221375
O       9.86241      7.82563     14.98612        -0.565968     -0.598987      0.182296
O       9.79121      7.80288      6.73081        -0.223619     -0.623766      0.013074
O       9.91259      7.85769     10.56014        -0.466081     -0.672714      0.298112
O       9.83773     11.63568      2.76897        -0.297108      0.358502     -0.885825
O       9.94250     11.58281     14.73875        -0.471596      1.143225      0.223903
O       9.50786     11.68663      6.45871         0.309188     -0.915914      0.003775
O       9.80069     11.65051     10.91790        -0.652487      0.153345     -0.178552
