  # total energy = -7878.47521915 
CRSYTAL
PRIMVEC
    15.6080000000000005    0.0000000000000000    0.0000000000000000
     0.0000000000000000   15.6080000000000005    0.0000000000000000
     0.0000000000000000    0.0000000000000000   16.6239999999999988
PRESSURE
-0.655613 -0.998055 -1.86857 0.113419 -0.278415 -0.004234
PRIMCOORD
320 1
Pb       3.73544      3.83581      4.16579         0.461378     -0.052554     -1.090848
Pb       3.74257      3.73288     16.56528         0.184276      0.692922      0.126098
Pb       3.93578     15.44036      4.31209        -0.312879     -0.033559     -0.503167
Pb       4.01418      0.00677      0.05694        -0.224072     -0.242973     -0.031429
Pb       0.00430      3.90927      4.16103        -0.238140      0.030496     -0.483910
Pb      15.60164      3.95879      0.00264        -0.358966     -0.285263     -0.061258
Pb       0.08339     15.58979      4.31508         0.023735     -0.591461     -0.361425
Pb      15.59910     15.56589      0.03725        -0.297768      0.224725     -0.775933
Pb       4.06702      4.04113      8.28649        -0.507148     -0.740654      0.293893
Pb       3.88514     15.56427      8.43827         0.144197     -0.082465     -0.532560
Pb       0.11093      3.94364      8.26410        -0.890696     -0.116954      0.252580
Pb      15.57460      0.04218      8.38650         0.258010     -0.218282     -0.461715
Pb       3.95252      3.84271     12.34700         0.199854      0.057684     -0.447492
Pb       3.94828      0.15378     12.37434        -0.111339     -0.669606     -0.082013
Pb      15.51179      3.86137     12.40282         0.126393      0.077794     -0.272864
Pb      15.50026     15.51503     12.30627         0.301506     -0.173322      0.219513
Pb       3.96653      7.66597      4.20822        -0.649050      0.347652     -0.763486
Pb       3.87248      7.85325      0.05491        -0.124101     -0.345533     -0.122743
Pb      15.47964      7.71298      4.15157         0.478973      0.555154     -0.502784
Pb       0.00688      7.77753      0.01266        -0.039004      0.124580      0.095917
Pb       3.88429      7.84493      8.28339         0.162005      0.197177     -0.256386
Pb       0.18050      7.87264      8.03588        -0.848113     -1.107177      0.855162
Pb       3.77253      7.78303     12.46840         0.309695      0.290460     -0.143714
Pb       0.05166      7.73351     12.38505        -0.865263      0.399975     -0.054898
Pb       3.99562     11.58365      4.28952        -0.574351      0.436070     -0.492425
Pb       3.90215     11.65024      0.01579         0.156610      0.132595     -0.026257
Pb       0.06718     11.64869      4.23972         0.064078      0.360971     -0.370734
Pb       0.01761     11.58049     16.55963        -0.214856      0.065439      0.356811
Pb       3.89742     11.50436      8.37975         0.184300      0.529433     -0.245229
Pb       0.00331     11.72733      8.39783        -0.198205      0.229250     -0.829141
Pb       3.78030     11.71213     12.58542        -0.031308     -0.046703      0.327175
Pb      15.36363     11.78924     12.48204         0.406841     -0.281898     -0.075747
Pb       7.88719      4.06167      4.12811        -0.592627     -0.636329     -0.000106
Pb       7.76089      3.73906      0.12504         0.203180     -0.033435     -0.755820
Pb       7.90806      0.05285      4.19202        -0.689166      0.379369     -0.172102
Pb       7.80828     15.44111     16.55980         0.300978      0.297320     -0.183103
Pb       7.89275      3.93058      8.08722        -0.104795     -0.219705      0.475971
Pb       7.70406     15.60664      8.33744        -0.224662     -0.273739     -0.629769
Pb       7.80875      4.06232     12.54161        -0.500526     -0.110903     -0.219866
Pb       7.77874      0.04004     12.38995        -0.057979      0.514837      0.205776
Pb       7.80296      7.76934      4.16178        -0.088013     -0.273256     -0.393766
Pb       7.84411      7.61111      0.07372        -0.417791      0.182581     -0.426976
Pb       7.67907      7.76084      8.37340         0.483087     -0.000338     -0.258385
Pb       7.66244      7.98906     12.58231        -0.032678     -0.582972     -0.360558
Pb       7.76821     11.62241      4.16085        -0.016384      0.385986     -0.599027
Pb       7.90757     11.55757      0.07109        -0.080290      0.290735     -0.420285
Pb       7.81381     11.57720      8.46362        -0.450256      0.522192     -0.181400
Pb       7.71857     11.81570     12.51855         0.047203     -0.708393      0.223003
Pb      11.55683      3.95688      3.91547         0.149070     -0.169653      1.306330
Pb      11.61357      3.66722     16.48156         0.192126      0.710865      0.331286
Pb      11.95693      0.12277      4.16580        -0.902893     -0.391005      0.383425
Pb      11.78853     15.59078      0.01360         0.053296     -0.127721     -0.094998
Pb      11.69133      3.63386      8.09701         0.333751      1.044943      0.479794
Pb      11.82110     15.43813      8.31930        -0.593085      0.230778     -0.104604
Pb      11.52208      3.95707     12.34372         0.625699     -0.031002      0.278705
Pb      11.75319      0.07454     12.58060        -0.124754     -0.513613     -0.674466
Pb      11.65595      8.07174      4.18279         0.014943     -0.965555     -0.117238
Pb      11.74521      7.74102     16.56061        -0.199395      0.004196      0.311065
Pb      11.71359      7.72654      8.28848         0.013543     -0.280930     -0.159426
Pb      11.89397      7.56430     12.40014        -0.307988      0.915655      0.259848
Pb      11.58347     12.05855      4.09183         0.407134     -0.512166      0.009683
Pb      11.62653     11.72763      0.06306         0.096541     -0.451640     -0.120871
Pb      11.51613     11.49293      8.14145         0.961108      1.225661      0.456912
Pb      11.66467     11.53179     12.53968         0.098237      0.103211     -0.221661
Ti       1.88474      1.92924      2.21605         0.580124      0.383155     -0.146067
Ti       1.85686      2.00988     14.54968        -0.690900     -0.857675     -0.346126
Ti       1.85915     13.73088      2.13041         0.503307     -0.721404      2.241759
Ti       1.85848     13.69033     14.66992         0.322046     -0.061467     -1.028016
Ti      13.67967      1.97652      2.25299        -0.241987     -0.111546     -1.152250
Ti      13.65485      1.88378     14.56383         0.117215      0.159172      1.479863
Ti      13.67191     13.69001      2.14199        -0.299231      0.084604      0.156464
Ti      13.61962     13.46777     14.66431         0.151546      0.924471      0.426937
Ti       1.96702      1.91202      6.32745         0.160640     -0.007543      0.682614
Ti       1.93663     13.53497      6.44555        -0.340585      0.234049     -0.928716
Ti      13.70197      1.89999      6.34132        -0.484740      0.481729      0.579313
Ti      13.62230     13.57625      6.35384        -0.009318      0.303984     -0.209848
Ti       1.88993      1.84509     10.51635         0.559085      0.246065     -0.762530
Ti       1.99261     13.54535     10.53868        -0.160232      1.192871     -0.791228
Ti      13.54661      1.96154     10.50157         0.181526      0.104238     -1.385521
Ti      13.47460     13.63751     10.44467         0.141187     -0.643447      0.431073
Ti       1.80465      5.90779      2.18456         1.264487      0.202521     -0.021546
Ti       1.97617      5.87291     14.53479         0.311028     -0.353055      1.364840
Ti      13.51364      5.82176      2.25480         0.148261      0.230020     -0.427314
Ti      13.68941      5.74182     14.67846        -0.979816      0.157937      0.028260
Ti       2.05865      5.71150      6.31173        -1.204302      1.216478     -0.740690
Ti      13.70530      5.83938      6.23644        -1.298934     -0.426720      0.253290
Ti       1.93349      5.81775     10.45499        -0.194448     -0.189604     -0.900353
Ti      13.63436      5.82497     10.36264         0.173532      0.154352      0.680177
Ti       1.92154      9.84740      2.26873        -0.461418     -1.046126      0.267073
Ti       1.90981      9.69802     14.69275        -0.034230      0.648630     -0.248220
Ti      13.53036      9.80619      2.33650         0.747414     -0.120531     -1.880271
Ti      13.60641      9.59206     14.78598         0.324329      0.603962     -0.330635
Ti       1.97545      9.69338      6.30512        -0.357938      0.517216     -0.659554
Ti      13.62326      9.68999      6.32790         0.554667      0.725731      0.234198
Ti       1.86571      9.79468     10.44891         0.570526     -0.522192      0.507432
Ti      13.67090      9.73079     10.42857        -0.451813     -0.348667      0.433347
Ti       5.73889      1.94321      2.21375         0.480455      0.285404      0.860808
Ti       5.80335      1.92626     14.69473         1.155689      0.885131     -0.784354
Ti       5.81129     13.65844      2.32077        -0.611314      0.032323     -0.708018
Ti       5.71610     13.63071     14.69476        -0.051829     -0.502373      0.108500
Ti       5.75223      1.99974      6.25690         0.940939     -1.524834     -0.505726
Ti       5.77421     13.59838      6.35522         0.140437      1.189180      0.523693
Ti       5.99603      2.07459     10.34935        -1.291850     -0.093289      0.404161
Ti       5.86823     13.70185     10.59635        -1.446182      0.188596     -2.315021
Ti       5.77615      5.89005      2.08753        -1.216048     -0.775776      0.275764
Ti       5.88534      5.81912     14.72591        -0.307766      0.288996     -1.097880
Ti       5.82301      5.81695      6.30361         1.054910      0.401064     -0.522913
Ti       5.82786      6.03701     10.40997         0.298541     -1.569859      1.401647
Ti       5.80544      9.80960      2.26264        -0.312628      0.088866     -0.901906
Ti       5.84247      9.75814     14.71485        -0.467844     -0.416733      0.018613
Ti       5.94426      9.71719      6.37458        -1.357186     -0.178000     -0.830142
Ti       5.77380      9.87233     10.65804        -0.013601     -0.606995     -0.727065
Ti       9.65877      1.88646      2.19268        -0.217050      0.539500      0.067998
Ti       9.71553      1.86812     14.53728        -0.627005      0.465692      1.819722
Ti       9.67253     13.67735      2.25864         0.308967      0.246005     -0.923428
Ti       9.77980     13.59953     14.61989         0.167251     -0.135331      1.034590
Ti       9.67838      1.85142      6.39257         0.519258     -0.103011     -0.864502
Ti       9.62575     13.67545      6.32505         1.213658      0.083619      0.370144
Ti       9.74540      1.91343     10.51625        -0.304425      0.248048      0.120917
Ti       9.64920     13.62360     10.51724         1.526927      0.374593     -0.540806
Ti       9.66047      5.87403      2.05394         0.820965     -0.033793      0.210939
Ti       9.72599      5.85030     14.61197         0.446270     -0.789124      1.182712
Ti       9.78501      5.88918      6.35068         0.550698      0.017763     -0.591141
Ti       9.67792      5.91933     10.48059        -0.023307      0.077568      0.104652
Ti       9.64518      9.74961      2.11372         1.402107      0.038034     -1.436367
Ti       9.70809      9.64931     14.59572         0.533461      0.706491      0.180173
Ti       9.73646      9.75312      6.36522        -0.044028     -0.994546      0.032030
Ti       9.82138      9.78998     10.49808        -0.030958     -1.473075      0.968285
O       1.73190      2.04035      0.42092         0.630990     -0.266235     -0.553046
O       1.86267      2.02834     12.71793         0.226476     -0.211674      1.052037
O       1.70411     13.87131      0.39499         0.271536     -0.265913     -0.970915
O       1.97243     13.49514     12.83753        -0.262554      0.361089     -0.066216
O      13.53772      2.04265      0.42493         0.217426     -0.214471      0.450318
O      13.57397      1.93371     12.81868         0.029464      0.041940     -1.627492
O      13.70474     13.81560      0.32994         0.051645     -0.125612      0.406926
O      13.41748     13.42156     12.84347         0.290237      0.504831      0.482917
O       1.99205      2.04092      4.51118        -0.478540      0.160801      0.313535
O       2.00583     13.54076      4.62193        -0.616082      0.350415      0.674888
O      13.74776      1.82184      4.54233         0.145702      0.049652      0.241573
O      13.58407     13.83590      4.53393         0.039656     -0.627880      0.777161
O       1.90763      1.75176      8.71783         0.197046      0.426786      0.388559
O       1.91731     13.50270      8.68284        -0.030702      0.456366      0.632846
O      13.50119      2.00130      8.61244         0.098046     -0.602649      1.370919
O      13.55579     13.63283      8.66050         0.492469     -0.233170      0.061038
O       1.87871      5.89555      0.36021        -0.129013     -0.112077      0.365007
O       1.76315      6.05370     12.77627         0.550220     -1.157129     -0.448473
O      13.59112      5.64456      0.45191        -0.281136      0.720574      0.533297
O      13.65274      5.94119     12.88752         0.320774     -0.388146     -0.414800
O       2.05484      5.82661      4.47543        -0.490927     -0.904041      1.143606
O      13.54385      5.85797      4.45571         0.552505      0.038450      0.535509
O       2.04110      5.76489      8.59015         0.094998      0.519389      1.112830
O      13.60622      5.91934      8.64628        -0.297829     -0.117210     -0.997405
O       1.83310      9.57390      0.45863         0.398176      0.338191      0.364115
O       1.90483      9.83616     12.89824        -0.121243     -0.394652      0.216110
O      13.52575      9.62804      0.49867         0.280536      0.331396      0.656893
O      13.92591      9.51654     13.05439        -0.636330      0.696945     -0.927249
O       1.94196      9.86318      4.52431        -0.051298      0.017916      0.335569
O      13.55951      9.64996      4.54786        -0.153811      0.496283     -0.576503
O       1.99785      9.85798      8.62763        -0.142180     -0.560202      0.420752
O      13.57964      9.77329      8.67298        -0.005717      0.015984     -0.577703
O       5.73239      1.73931      0.40793         0.309809      0.704265     -0.813190
O       6.06893      2.11374     12.90871        -1.081144     -0.776073      0.268669
O       5.60831     13.54080      0.47664         0.487212      0.626602      0.291143
O       5.59512     13.58244     12.92672         0.656520      0.204072     -1.137475
O       5.79335      1.95124      4.45724        -0.315937      0.074901      0.584932
O       5.63799     13.58837      4.52497         0.363015      0.088787      0.428153
O       5.95993      1.90099      8.57528        -0.506462      0.116430      0.219931
O       5.94126     13.64440      8.67729         0.176663      0.360775      1.493319
O       5.69647      5.93483      0.31013         0.121338     -0.030231      0.616556
O       6.13518      5.83609     12.87461        -0.549549     -0.209880      0.330710
O       5.94332      5.87517      4.51787        -0.167098      0.286678     -0.608009
O       5.60143      6.01072      8.62318         0.298964      0.105946     -0.247595
O       5.74231      9.96740      0.44527         0.012370     -0.590760     -0.198342
O       5.78739      9.82741     12.90459         0.248115     -0.221221     -0.856599
O       5.88272      9.76252      4.52811         0.327328      0.389782      1.084684
O       5.70543      9.66832      8.77986        -0.105789      0.249095      0.191526
O       9.64496      2.10718      0.42191         0.182397     -0.429148      0.001283
O       9.71012      1.77695     12.78092         0.103145     -0.024114     -0.351658
O       9.59970     13.55495      0.44109         0.034614      0.276864      0.383786
O       9.94749     13.61118     12.84862        -0.535374      0.060586      0.216909
O       9.70251      1.67885      4.62053        -0.324312      0.244946      0.065217
O       9.92187     13.77659      4.51422        -1.068446     -0.140957      0.529057
O       9.80046      2.03086      8.76294        -0.248603      0.130898     -1.435905
O       9.40421     13.39389      8.75300         0.490171      0.302802      0.018803
O       9.78563      5.78668      0.27819        -0.402465      0.106481      0.570974
O       9.54259      5.84700     12.82535         0.167151      0.294595     -0.040274
O       9.43635      5.98890      4.54478         0.371373      0.088273      0.399283
O       9.77117      5.77965      8.71834        -0.157268      0.044907     -0.673175
O       9.87456      9.89517      0.24748        -1.019801     -0.336887      1.363518
O       9.65639      9.62880     12.78390         0.075641      0.453864      0.447798
O       9.69571      9.54707      4.60966        -0.545470      0.428501     -0.924484
O       9.74520      9.75406      8.67633         0.019789      0.473169      0.240854
O       3.83617      1.96005      2.36978        -0.577118      0.015549      0.221790
O       3.77789      1.94182     14.92214         0.044346      0.131485     -0.156366
O       3.70610     13.63485      2.57871         0.860373      0.254449     -0.544025
O       3.76822     13.67992     14.87975        -0.177055      0.089422      1.018172
O      15.60360      2.12106      2.50122        -0.743908     -0.468422      0.274244
O      15.48944      2.22179     14.84329         0.705345     -0.537885     -0.077647
O      15.46365     13.73912      2.64071         1.210565      0.184087     -0.315174
O      15.52478     13.61255     14.84467        -0.246499     -0.413512      0.101476
O       3.89606      2.01898      6.53971        -0.343239      0.226906      0.411818
O       3.85096     13.71508      6.64488         0.328872     -0.263720      0.449341
O      15.58658      1.85913      6.78572        -0.406325      0.449220     -0.674620
O       0.03466     13.68802      6.67535        -0.981797      0.459928      0.082498
O       3.91361      1.85258     10.74158         0.270154      0.591899      0.235864
O       3.94263     13.82753     10.58950        -0.484064     -0.392002      0.664413
O      15.57634      1.83912     10.68996        -0.597049      0.238233      0.378726
O      15.48009     13.65484     10.79141         0.610884     -0.478321      0.114370
O       3.79439      6.16907      2.37387         1.260905     -0.756920      0.187575
O       3.95615      5.81566     14.77525        -1.600244      0.046061     -0.044322
O      15.44869      5.72890      2.55585         0.727523      0.428118     -0.140886
O      15.52200      5.71187     14.94481         0.826273      0.574470     -0.117408
O       3.94527      5.79105      6.40213        -1.111834     -0.371041      0.892740
O       0.00399      5.83628      6.58382         0.328189     -0.075099     -0.111482
O       3.85624      5.94749     10.78831         0.009435     -0.470238      0.306056
O      15.50174      5.78206     10.60766         1.432105     -0.179680      0.555945
O       3.87203      9.71830      2.59471        -0.753808      0.430660     -0.287901
O       3.84738      9.62034     14.98465        -0.627064      0.175586      0.137891
O      15.53834      9.82637      2.70198        -0.356139     -0.255664     -0.491460
O      15.58213      9.65700     15.10903         0.552850      0.079396      0.255311
O       3.85649      9.75408      6.59560         0.339488      0.283837      0.266021
O      15.59450      9.59655      6.62406         0.155267      0.765636     -0.408546
O       3.83475      9.79398     10.89901        -0.002595     -0.280514     -0.293995
O       0.00928      9.89941     10.65681         0.054092     -0.273988      0.177234
O       7.72914      2.13896      2.60233        -0.161660     -0.515535     -0.509930
O       7.84950      1.78443     15.01879        -1.006229      0.340368     -0.023905
O       7.74736     13.66928      2.68208        -0.881759     -0.301913     -0.272213
O       7.63351     13.53641     14.86835         0.856532      0.215776      0.033228
O       7.76276      1.97098      6.59218         0.685112     -0.406811      0.223948
O       7.81276     13.75574      6.54978        -0.907002     -0.678029     -0.509729
O       7.77133      1.95804     10.71868         1.036102     -0.224427      0.188245
O       7.74418     13.59491     10.94777         0.468259      0.176332      0.345846
O       7.73900      5.95173      2.27606        -0.865013     -0.522233      0.227730
O       7.71471      5.65796     15.21919         1.401826      0.746274     -0.377602
O       7.63259      6.00451      6.70651         1.809491     -0.336335      0.494596
O       7.73868      5.94604     10.63706         0.288104     -0.117680     -0.251619
O       7.81681      9.98188      2.31370        -0.946152     -0.038571      0.664417
O       7.75977      9.85679     14.84544         0.347165      0.136379      0.423354
O       7.77330      9.75355      6.66310         0.008490     -0.419550      0.178805
O       7.67435      9.83294     10.72766         0.951902      0.010430      0.268279
O      11.55809      1.92434      2.62257         0.366082      0.261599     -0.609982
O      11.59661      1.83026     15.00896         0.558711     -0.258640     -0.602479
O      11.64226     13.82624      2.52302        -0.167565     -0.375736     -0.519655
O      11.73985     13.63884     15.15133        -0.809213      0.317182     -0.595367
O      11.64719      1.99934      6.52106         0.296729     -0.459794      0.158734
O      11.70337     13.55829      6.68981        -0.407549     -0.429554      0.046519
O      11.65409      1.89132     10.82363         0.401455      0.114556      0.267324
O      11.61129     13.65833     10.58434        -0.126921     -0.065431      0.274858
O      11.50905      5.92118      2.52151         0.920659      0.076238     -0.126775
O      11.61305      5.97138     14.85148        -0.302829     -0.199822     -0.151318
O      11.70629      5.91113      6.42665        -0.457449     -0.251312      0.607484
O      11.65833      5.82133     10.83668         0.172814      0.083951     -0.046429
O      11.54477      9.80805      2.42679         0.822994     -0.154482      0.930565
O      11.69559      9.75238     14.81456        -0.704838     -0.509075      0.121931
O      11.65374      9.70379      6.54205         0.312781      0.224940      0.473508
O      11.77444      9.58313     10.87778        -1.093311      0.949762     -0.314602
O       1.96572      3.95740      2.48270         0.071155     -0.050800      0.184959
O       1.87332      3.96121     14.83815         0.571909     -0.608458      0.107244
O       1.86614      0.02285      2.58452        -0.384799      0.176159     -0.145943
O       1.64513      0.01842     14.80740         0.451225      0.893514      0.129453
O      13.54391      3.85797      2.64314        -0.288593      0.593602     -0.114802
O      13.47711      3.88891     14.91357        -0.240255     -0.139458     -0.235988
O      13.54100      0.09703      2.36983         0.463132     -0.291554      0.354651
O      13.74641     15.59501     14.76767        -0.619932      0.308880      0.345407
O       1.91071      3.84910      6.89328         0.558171      0.272886     -1.493228
O       1.92307      0.12479      6.57327         0.166575     -1.630068      0.132522
O      13.65271      3.91356      6.58691         0.288382     -0.332161     -0.164596
O      13.50183     15.55063      6.69809         0.736543      0.762556     -0.166659
O       1.98036      3.90283     10.80054        -0.179567      0.189632     -0.125866
O       1.97167     15.51146     10.77162        -0.472802      0.606169      0.457486
O      13.57120      3.83417     10.70404         0.139757      0.265436      0.444606
O      13.54834     15.56569     10.76708         0.070978      0.121727      0.243865
O       1.81280      7.78145      2.63024        -0.628344      0.341410     -0.269739
O       1.92040      7.72556     14.89505        -0.317703      0.522105      0.212078
O      13.58696      7.82972      2.56049        -0.091038     -0.526091     -0.183088
O      13.60706      7.74018     15.09133         0.179658     -0.740817      0.275504
O       1.96461      7.70060      6.42154         0.222940      0.446681      0.924547
O      13.66384      7.84181      6.57369        -0.159413     -1.114686      0.383385
O       1.91035      7.79250     10.76224        -0.131438      0.600100     -0.369044
O      13.70159      7.80339     10.77910        -0.020553     -0.436246     -0.064819
O       1.80403     11.73434      2.38335        -0.000138     -0.095088     -0.031861
O       1.82939     11.72422     15.07266         0.439581     -0.724249     -0.131692
O      13.55653     11.81424      2.40074        -0.293951     -0.679194      0.386452
O      13.62318     11.62229     15.13083         0.103062      0.258518     -0.566075
O       1.73038     11.63993      6.62073         0.674839      0.083380      0.197822
O      13.77001     11.66957      6.57572        -0.284729     -0.014514      0.039161
O       2.02405     11.71581     10.75793        -0.098725     -0.488995      0.017579
O      13.52911     11.61228     10.96082         0.158761      0.280531     -0.693913
O       5.60859      3.91684      2.37992         0.468807      1.273152     -0.225271
O       5.87517      3.87890     14.90311        -0.511791     -1.269782      0.891172
O       5.70276      0.02937      2.51162         0.355989     -1.121948      0.099078
O       5.67006      0.01133     14.93190         0.384631     -0.608933      0.043561
O       5.91058      3.87866      6.55798        -0.274218      0.933096      0.498614
O       5.80495     15.60127      6.59365        -0.011299     -0.108686      0.058265
O       5.87618      3.96184     10.53223        -0.647632     -0.016116      0.528159
O       5.94342      0.05964     10.85419        -0.084447     -0.530475      0.032363
O       5.85355      7.99077      2.46373         0.428088     -2.074503      0.026172
O       5.92480      7.78277     14.89416         0.045890      0.481956      0.313800
O       5.74419      7.80824      6.61870         0.014659      0.816833      0.105750
O       5.83265      7.79543     10.96579        -0.355173      1.066039     -0.491842
O       5.74966     11.72198      2.56905         0.216548      0.780948      0.546874
O       5.55549     11.61025     14.93923         0.341893      1.323825      0.072408
O       5.77560     11.73550      6.70464         0.323934     -0.983903     -0.282254
O       5.79692     11.78231     10.83212        -0.141548     -0.539921      0.080845
O       9.65567      3.95919      2.54339        -0.140520      0.224155     -0.264237
O       9.73967      3.85484     14.86449        -0.099961     -0.235372     -0.522840
O       9.41710      0.04234      2.28203         0.394086     -0.456138      0.276954
O       9.68923     15.50681     14.99767         0.147345     -0.129910     -0.113702
O       9.68731      3.91949      6.46896        -0.355027     -0.185771      0.485155
O       9.75964     15.47542      6.84187        -0.042731      1.121166     -0.205197
O       9.72959      3.85498     10.94774        -0.285576      0.504608     -0.554109
O       9.72530     15.58406     10.67072        -0.638019     -0.535350      0.454132
O       9.49155      7.87515      2.20491         0.398912     -0.197842      0.589479
O       9.56180      7.77680     15.00310         0.060492      0.204546     -0.332478
O       9.87661      7.72581      6.74112        -1.137366      1.027951      0.124837
O       9.79702      7.84486     10.64366        -0.510900     -0.408028      0.113533
O       9.64823     11.78051      2.50774         0.480339     -0.247670      0.587018
O       9.83968     11.69629     15.03173        -0.513259      0.293130     -0.930558
O       9.70364     11.62287      6.59132        -0.186283      0.638339     -0.163278
O       9.79370     11.69611     10.87796        -0.261113     -0.746357     -0.040752
