  # total energy = -7881.51434985 
CRSYTAL
PRIMVEC
    15.6080000000000005    0.0000000000000000    0.0000000000000000
     0.0000000000000000   15.6080000000000005    0.0000000000000000
     0.0000000000000000    0.0000000000000000   16.6239999999999988
PRESSURE
-0.928361 -0.556241 -0.692317 -0.282444 0.227083 -0.11508
PRIMCOORD
320 1
Pb       3.96046      3.81609      4.10757        -0.524917      0.392497      0.009945
Pb       4.04174      3.98377      0.07861        -0.483277      0.063358     -0.298828
Pb       3.91278     15.59601      3.98850        -0.219212      0.051615      0.181548
Pb       3.84644     15.57052     16.56465         0.209169     -0.031767     -0.043895
Pb       0.04259      3.85999      4.10884         0.170032      0.415564      0.225937
Pb      15.58239      3.78512     16.60710        -0.378943      0.619457     -0.334284
Pb      15.56749     15.48898      4.00425         0.344037      0.034604      0.568196
Pb      15.57757     15.58498     16.57180        -0.091123      0.138328     -0.147561
Pb       3.75345      3.76554      8.25788         0.540299      0.087604      0.001463
Pb       3.83940     15.59710      8.15655         0.881451     -0.466672     -0.087208
Pb      15.47015      3.82326      8.27578         0.518409      0.543804     -0.322990
Pb      15.56545     15.55623      8.21001        -0.248095     -0.085825      0.353069
Pb       3.76560      3.86788     12.48673         0.976372     -0.246301     -0.511450
Pb       3.85590     15.52806     12.51899         0.440979      0.255351     -0.212937
Pb       0.07666      4.01170     12.53684        -0.550815     -0.392789      0.360139
Pb       0.06401      0.16506     12.66669        -0.132235     -0.422046     -0.669282
Pb       3.83687      7.88156      4.06722         0.300526     -0.376036      0.148668
Pb       3.88458      7.76273     16.52380         0.029305      0.284209      0.454181
Pb      15.58591      7.85920      4.16973         0.171272     -0.124333     -0.408196
Pb      15.57572      7.75739     16.52203         0.718420     -0.601249      0.754529
Pb       3.82166      7.71850      8.30403         0.276017     -0.008276     -0.749598
Pb      15.31599      7.70966      8.57004         0.865422     -0.301638     -0.531475
Pb       3.94236      7.77904     12.37907        -0.080527      0.357821      0.165418
Pb      15.51048      7.85452     12.52430         0.142069     -0.170464     -0.006071
Pb       3.82936     11.72102      4.01271         0.176778     -0.353319      0.222007
Pb       3.82262     11.73500     16.58748         0.476490     -0.398807     -0.356700
Pb      15.52238     11.64305      4.01800         0.475878      0.109532     -0.009863
Pb      15.54996     11.74054     16.55180         0.205874     -0.160405      0.086993
Pb       3.83863     11.77761      8.25478         0.291707     -0.157962     -0.431676
Pb       0.01256     11.66703      8.23964         0.350320     -0.112203      0.325908
Pb       3.90816     11.63138     12.34516         0.023829     -0.043258      0.367146
Pb       0.11834     11.69301     12.44633        -0.237319      0.237759      0.201299
Pb       7.77181      3.70649      4.16283         0.577040      0.296464     -0.491401
Pb       7.79093      4.00421     16.56469         0.678557     -1.005367      0.428093
Pb       7.71682     15.52965      4.12347         0.653087     -0.041763     -0.523631
Pb       7.80800      0.14559      0.00982         0.246963     -0.243301     -0.227917
Pb       7.71420      3.84587      8.38202        -0.133408     -0.046757      0.107301
Pb       7.85976      0.02399      8.21688        -0.641438     -0.389000      0.058133
Pb       7.80634      3.71487     12.40446        -0.317828      0.299148      0.283656
Pb       7.69070     15.54663     12.43214         0.123505      0.474401      0.366412
Pb       7.82084      7.83930      4.18152        -0.069005     -0.423458     -0.078611
Pb       7.62983      7.77480     16.58820        -0.255888      0.164952      0.115435
Pb       7.81935      7.71603      8.19629        -0.064938      0.337768      0.002987
Pb       7.72004      7.73326     12.42597        -0.037071      0.062615     -0.076787
Pb       7.86339     11.73493      4.19115         0.398954     -0.099071      0.293618
Pb       7.67570     11.80314     16.55582        -0.482364     -0.305738      0.111885
Pb       7.80599     11.75206      8.26881         0.154131     -0.292902     -0.373116
Pb       7.76007     11.64221     12.38993         0.254753     -0.061406      0.076458
Pb      11.86023      3.78558      4.27962        -0.686400      0.218129      0.062423
Pb      11.72542      4.03688      0.18626         0.188323     -0.664310     -0.636821
Pb      11.60353     15.44604      4.11101         0.007593      0.000500      0.146738
Pb      11.60342     15.54166     16.56696         0.040938      0.283135     -0.065526
Pb      11.73571      4.07641      8.45735        -0.431753      0.009128     -0.614419
Pb      11.70760      0.16179      8.34246         0.442384     -0.488889      0.003402
Pb      11.77523      3.83851     12.49765        -0.676186      0.357091      0.460504
Pb      11.56149      0.06423     12.40969         0.297260     -0.682727      0.210443
Pb      11.77562      7.82201      4.22439        -0.195907     -0.111280     -0.337703
Pb      11.60493      7.81401     16.61793         0.193935     -0.006196     -0.194064
Pb      11.67815      7.78955      8.35961        -0.925775     -0.053805     -0.178292
Pb      11.50325      8.00766     12.57962         0.549344     -0.390957     -0.095927
Pb      11.87179     11.41551      4.18612        -0.867661      0.601429     -0.098215
Pb      11.60536     11.67837     16.52296         0.601782     -0.385585      0.132191
Pb      11.83733     11.90662      8.52776        -0.717034     -0.340566     -0.188976
Pb      11.58144     11.79314     12.42292         0.076343      0.141955     -0.144637
Ti       1.95722      2.02623      2.16519         0.120724     -0.269552      0.213833
Ti       1.98470      2.05164     14.63957         0.015227     -0.716079      0.696690
Ti       1.95868     13.66469      2.11569        -0.592223      0.073116      1.258346
Ti       1.91034     13.68584     14.59097         0.401962     -0.854306     -0.405515
Ti      13.67527      1.89103      2.31508         0.207003     -0.075860     -1.314745
Ti      13.67558      1.88756     14.59917        -0.607718      1.501964      1.512357
Ti      13.61534     13.59442      2.16649         0.168775      0.364092     -0.500343
Ti      13.60172     13.60839     14.64323         0.042080     -0.628431     -0.811711
Ti       1.91012      1.74616      6.31208         0.807121      1.298958      0.459607
Ti       1.85322     13.53825      6.29728         1.364507      0.769500     -0.446430
Ti      13.64939      1.89220      6.40776        -0.010481     -0.033391     -0.603978
Ti      13.65348     13.54884      6.40533        -0.287588      1.141945     -0.920183
Ti       2.02379      1.85534     10.53914        -0.229888      0.495257      1.597283
Ti       1.95014     13.66899     10.53366        -0.143689      0.257731      0.194525
Ti      13.74397      2.00383     10.61987        -0.294057     -1.502176     -0.841385
Ti      13.72460     13.73757     10.59259        -0.706415      0.514582      0.369679
Ti       1.88282      5.92055      2.24143         0.093240     -0.936428      0.491676
Ti       2.05960      5.82908     14.51517        -0.918994      0.634071      1.695202
Ti      13.56271      5.80316      2.28740         0.916373      0.163725     -0.714962
Ti      13.70880      5.81083     14.70250        -0.307186     -0.887451      0.742348
Ti       2.00575      5.69490      6.34166        -0.722036      0.517556      0.519838
Ti      13.72480      5.88549      6.36675        -0.171061     -0.912573     -0.356543
Ti       1.82993      5.83758     10.59178         0.428279     -0.839105     -1.406219
Ti      13.56550      5.83534     10.63995         0.060796      0.987948      0.463937
Ti       1.98588      9.78804      2.20667        -0.011721     -1.019458     -0.740850
Ti       1.94417      9.73600     14.71800         0.293508      0.084777      0.471152
Ti      13.63018      9.69616      2.13214         0.170146     -0.534941      0.244240
Ti      13.72076      9.62274     14.74778        -1.256436      1.261515     -0.096156
Ti       1.98282      9.60200      6.34436         0.329895      0.264852     -0.355189
Ti      13.70925      9.73274      6.51371        -0.495376     -0.518368     -1.068161
Ti       1.92055      9.72627     10.44866         0.700529     -0.094972      0.522141
Ti      13.73445      9.83943     10.56610        -1.098656     -0.350049      0.096037
Ti       5.89287      1.97440      2.14688         0.185195     -0.836851      0.696225
Ti       5.82530      1.84038     14.69994         1.285632      0.459665     -0.613001
Ti       5.90422     13.53872      2.25385        -0.854061      0.358806     -1.119490
Ti       5.81811     13.61572     14.58622         0.134232     -0.239981      0.198070
Ti       5.89416      1.83512      6.24338        -1.424037     -0.256591      1.379435
Ti       5.88196     13.52269      6.26458        -0.432969      1.117384      1.398626
Ti       5.80100      1.96988     10.50636         0.563085     -0.130381     -0.126481
Ti       5.84150     13.59921     10.50657         0.182195      0.707939     -0.303603
Ti       5.80344      5.86182      2.16239        -0.032980      0.831413     -0.282295
Ti       5.88401      5.71405     14.66874        -0.046225      1.402542      0.740840
Ti       5.81920      5.71068      6.30453        -0.132816      1.045804      0.068174
Ti       5.71508      5.84787     10.50154         0.792355     -1.729072      0.457557
Ti       6.00827      9.71546      2.28216        -1.420143      0.614389     -1.747469
Ti       5.88677      9.72677     14.59248        -1.325244     -0.063729      0.463057
Ti       5.87210      9.64559      6.30428        -0.065510     -0.289949      0.090787
Ti       5.83855      9.72328     10.37419         0.226164     -0.078183      0.339942
Ti       9.89187      1.91111      2.24219        -0.985071      0.355132      0.640235
Ti       9.84424      1.88168     14.69881        -1.061713      0.314382      0.367152
Ti       9.79554     13.52513      2.12000        -0.208803      0.581285      0.506560
Ti       9.71921     13.55604     14.68767        -0.347714      1.046923     -0.829967
Ti       9.76367      1.95353      6.45929         0.331720      0.079914     -1.633786
Ti       9.83659     13.60868      6.37233        -0.837734     -0.374158     -1.588889
Ti       9.79125      1.93684     10.52521        -0.709933      0.723733     -0.502443
Ti       9.64325     13.71614     10.49616         1.373191     -1.139458     -0.232863
Ti       9.72993      5.78467      2.28680        -0.073047     -0.057325      0.471012
Ti       9.76751      5.80201     14.77702         0.395366     -0.332864     -0.831340
Ti       9.75232      5.77964      6.32434        -0.173314      0.795684      0.807004
Ti       9.68402      5.82607     10.68705         0.670468     -0.020258     -0.718139
Ti       9.75756      9.70111      2.09487         0.958038     -0.276935     -0.060029
Ti       9.68413      9.69796     14.71444         0.335857      0.003524      0.062976
Ti       9.84386      9.76205      6.40838        -0.379727     -0.477955      0.079001
Ti       9.69405      9.71865     10.52492         0.408884      0.925361     -1.265107
O       1.92953      1.98685      0.37185         0.025984      0.127189      0.033944
O       2.04912      1.89554     12.86730        -0.119021      0.007029      0.571057
O       1.90615     13.62161      0.37538         0.224396      0.280143     -0.773050
O       1.99734     13.53854     12.74264        -0.086058      0.132828      1.331375
O      13.71529      1.85778      0.49943         0.366333      0.164430      0.313430
O      13.67946      2.11733     12.86825        -0.093880     -0.634978     -1.207265
O      13.69146     13.66111      0.35631        -0.179144      0.294340      0.644726
O      13.57202     13.56006     12.82524         0.134737      0.163829      1.208899
O       1.97389      1.90187      4.61699         0.002539      0.083330     -1.760152
O       1.79242     13.60349      4.52362         0.384320     -0.457304      0.058546
O      13.61878      1.94607      4.61933         0.168690     -0.211879      0.154132
O      13.71808     13.53901      4.59724        -0.238684     -0.025487      0.573653
O       2.13750      1.84144      8.77724        -0.629429     -0.041373     -0.289662
O       2.02788     13.90245      8.76632        -0.417396     -0.748348      0.104217
O      13.71679      1.80825      8.77424        -0.046489      0.601955      0.565130
O      13.70444     13.69001      8.74140        -0.094599     -0.386952      0.641060
O       1.97743      5.96199      0.50802        -0.088807     -0.572016     -1.228104
O       2.14459      5.78081     12.74692        -0.463817      0.206750      0.227502
O      13.67529      5.62087      0.47722        -0.384424      0.392712      0.171205
O      13.72132      5.81028     12.97014        -0.467137     -0.067413     -1.599675
O       1.90505      5.77259      4.60091         0.146068      0.027989     -0.300410
O      13.59018      5.90234      4.59305         0.190224     -0.127303     -0.199191
O       1.84944      5.66311      8.76303         0.035097      0.260498      0.677425
O      13.79274      5.73816      8.81282        -0.659814      0.276713      0.114565
O       1.88692      9.71003      0.42012         0.304609     -0.022421      0.160042
O       1.76458      9.69611     12.95762         0.465180      0.289605     -0.406733
O      13.52166      9.68008      0.38183         0.231899     -0.074234     -0.032907
O      13.69758      9.61273     12.98266         0.492818      0.244761     -1.337640
O       1.93935      9.77011      4.49570         0.062258     -0.292743      1.034751
O      13.57496      9.67163      4.59851         0.224484      0.196573      1.160706
O       2.06725      9.77831      8.70157        -0.374234     -0.418700     -0.126263
O      13.88186      9.85809      8.72487        -0.498580     -0.529263      0.806805
O       5.87113      1.85154      0.39900        -0.163459      0.253120     -0.803705
O       5.87197      1.94015     12.91847         0.024707     -0.105436      0.439103
O       5.83556     13.52419      0.44420         0.214106      0.107983     -0.321959
O       5.77719     13.63876     12.80392         0.114451     -0.009334     -0.110564
O       5.83133      1.94508      4.46591         0.390342     -0.143429     -0.510220
O       5.84340     13.52067      4.52734        -0.046221      0.363340     -1.945521
O       5.83629      1.94931      8.72093        -0.053568      0.117598     -0.271181
O       5.96374     13.59122      8.73827         0.039740     -0.066883     -0.166255
O       5.77323      6.03238      0.27339         0.021848     -1.067301      1.736035
O       5.94309      5.79466     12.93205        -0.353278      0.385337     -1.103775
O       5.75961      5.85979      4.53427         0.364886     -0.181878     -0.259896
O       5.94038      5.66992      8.78601        -0.201926      0.312342     -1.114614
O       5.98652      9.83018      0.43998         0.146387     -0.145658      0.369356
O       5.80060      9.70763     12.80699         0.053050     -0.154881      0.054515
O       5.84628      9.58718      4.46581         0.264476      0.368361      0.403175
O       5.83305      9.81957      8.59514        -0.028054     -0.192502      0.751144
O       9.80901      1.84146      0.47356         0.140356     -0.348624     -0.115632
O       9.78400      1.88474     12.91599        -0.053033      0.121526     -0.958278
O       9.70993     13.68293      0.28844         0.178291     -0.400312      1.103856
O       9.83949     13.64637     12.88215        -0.095105     -0.204748     -0.250119
O       9.69427      1.96682      4.55278        -0.028623     -0.327445      1.869465
O       9.74682     13.53493      4.46827         0.184912      0.288501      1.759294
O       9.71487      2.01866      8.71144         0.371562     -0.388701     -0.088016
O       9.64125     13.59748      8.68549         0.079678      0.020310      0.079821
O       9.92941      5.52699      0.54694        -0.721474      0.945576     -1.347588
O       9.77688      5.77076     13.01243        -0.465573      0.069072     -0.403855
O       9.65616      5.81378      4.57475         0.136847      0.072535     -0.158457
O       9.93760      5.85725      8.89240        -0.566127     -0.087452     -0.081504
O       9.93357      9.71486      0.26504        -0.680607     -0.051206      1.114821
O       9.68485      9.83608     12.92678         0.085037     -0.393634     -0.328764
O      10.00736      9.63686      4.58049        -0.533621      0.219929      0.643224
O       9.77770      9.75580      8.72653        -0.247616     -0.065704      0.405259
O       3.86534      1.98145      2.49628         0.580004     -0.539082     -0.043475
O       3.96187      1.94933     15.03475        -0.705372      0.080966      0.013676
O       3.84776     13.58918      2.48522        -0.155596      0.274532      0.083599
O       3.86497     13.69887     14.95697         0.062862     -0.194647      0.051603
O       0.08805      2.02216      2.62779        -1.111575     -0.230446     -0.471326
O       0.04687      2.03897     14.89199         0.242867     -0.651704      0.110931
O      15.58239     13.57790      2.50596        -0.358135     -0.006407     -0.290378
O       0.04491     13.55036     14.97667        -0.811075      0.761412     -0.390139
O       3.92690      1.73906      6.59250        -0.131735      0.585450      0.058004
O       3.93461     13.65018      6.63166        -0.395260     -0.463857      0.012183
O      15.60538      1.80810      6.71362        -0.180133      0.561673     -0.016720
O      15.60180     13.56947      6.71021        -0.287025      0.063358      0.113514
O       3.91994      1.89343     10.91219        -1.049713     -0.055157     -0.217405
O       3.98944     13.58172     10.75480        -1.111939      0.271357      0.108340
O       0.01306      1.87255     10.98056        -0.218811      0.074888     -0.642059
O      15.58952     13.69174     10.88714         0.371843     -0.132800     -0.370393
O       3.86236      5.93927      2.46365         1.081467     -0.297296      0.140093
O       3.93314      5.81664     14.98803        -0.358227     -0.336678     -0.312326
O      15.55967      5.70667      2.51340        -0.457378      0.039493      0.400143
O       0.01591      5.75678     14.87529         0.767054      0.178895      0.347102
O       3.89366      5.97489      6.64289         0.290698     -1.021415      0.452321
O       0.02438      5.78890      6.67287        -0.341100      0.044409      0.078230
O       3.85663      5.73925     10.67718        -0.308906      0.318698      0.511259
O      15.54751      5.81732     10.98084         0.041560     -0.616469     -0.175885
O       3.91634      9.63606      2.40719        -0.692565      0.366441      0.384719
O       3.83408      9.77965     14.98423         0.086347      0.023521     -0.132009
O      15.58216      9.70088      2.52631        -0.768219      0.066493     -0.086784
O       0.00188      9.70001     15.20518        -0.046283      0.190984     -0.786050
O       3.96912      9.72309      6.61000        -0.534666      0.337452      0.059088
O       0.07112      9.63941      6.68299        -0.761725      0.551544     -0.057923
O       3.86197      9.72543     10.88469        -0.310366     -0.415200     -0.378849
O       0.05576      9.71743     10.87776        -0.682776      0.265811     -0.254947
O       7.78726      2.00396      2.47910         0.022950     -0.192109      0.179974
O       7.83989      1.83096     14.97391        -0.629886      0.187274      0.384881
O       7.72282     13.37270      2.52181         1.393537      0.784835     -0.175290
O       7.82754     13.55439     14.74448        -0.902415     -0.108450      0.613405
O       7.76522      1.94184      6.73189         0.649720     -0.179143     -0.500353
O       7.86121     13.66271      6.48617         0.202369      0.042926      0.582602
O       7.81241      2.03423     10.73499         0.544022     -0.139294      0.361459
O       7.78754     13.69899     10.89173        -0.272295     -0.327842     -0.009379
O       7.72678      5.84166      2.42149         0.383389     -0.393568      0.215170
O       7.80418      5.82347     15.14181         0.062964      0.099266     -0.301629
O       7.72347      5.99245      6.63692         1.219278     -1.241413     -0.090695
O       7.82933      5.75924     10.90103        -0.549380      0.406950     -0.023637
O       7.92897      9.84212      2.54152        -0.208971     -0.302533      0.054684
O       7.71879      9.75591     14.86546         1.004428      0.147642      0.334472
O       7.81770      9.66606      6.53828         0.617461      0.128366      0.186628
O       7.73434      9.61504     10.73648        -0.387628      0.455294      0.221324
O      11.76552      1.78327      2.55234        -0.714840     -0.103430      0.119249
O      11.72235      1.87736     14.90308         0.878180     -0.529606      0.231385
O      11.69593     13.59465      2.55171         0.028251      0.636237     -0.682907
O      11.66987     13.58835     14.99883         1.197614      0.387148     -0.055580
O      11.72914      1.90541      6.67219        -0.779623      0.365961      0.290162
O      11.75566     13.60332      6.71072        -0.333141     -0.188828      0.085905
O      11.67885      1.90987     10.85985         0.466415      0.335556     -0.084424
O      11.63483     13.57968     10.77942         0.426495     -0.131458     -0.227666
O      11.62943      5.81013      2.56868         0.981369      0.097316      0.272528
O      11.70577      5.89994     14.95013        -0.140935     -0.288782      0.681119
O      11.68793      5.87355      6.71766        -0.064407     -0.420025      0.056685
O      11.62353      6.02054     11.02705         1.877969     -0.664746     -0.383999
O      11.72009      9.62118      2.53419        -0.100774      0.317626     -0.172868
O      11.72963      9.52958     14.88551        -0.634439      0.284405      0.292248
O      11.75403      9.66309      6.86049         0.557561      0.317874     -0.464836
O      11.69243      9.70067     10.82731         0.941985      0.269169     -0.012122
O       2.02977      3.90801      2.63308        -0.213155     -0.429481     -0.496045
O       1.94927      3.93306     14.85633         0.494038     -0.330657      0.209378
O       1.86099     15.59996      2.43000         0.416684     -0.257762      0.036103
O       1.98013      0.00929     14.90805        -0.338902     -0.104058      0.032641
O      13.49103      3.81539      2.66790         0.585138      0.232930     -0.372957
O      13.68308      3.81845     14.97473        -0.215317      0.402698      0.374784
O      13.67256     15.58531      2.54330         0.184424     -0.819235      0.121005
O      13.85956     15.60709     14.81851        -0.496376     -0.807104      0.338595
O       2.04562      3.78237      6.66102        -0.297391      0.299043     -0.051045
O       1.93143     15.50428      6.45046        -0.134248     -0.350384      0.990397
O      13.62512      3.90456      6.63438         0.234059     -0.377244      0.546442
O      13.59407     15.54629      6.66022         0.436242     -0.105843      0.183195
O       1.85247      3.78891     11.06251         0.651375     -0.121881     -1.267219
O       1.92660     15.54658     11.09138         0.334117      0.414479     -1.019535
O      13.58115      3.89125     10.79472        -0.071602      0.168510      0.093128
O      13.52209      0.02359     10.93127         0.658479     -0.420916     -0.117393
O       1.84942      7.72470      2.63416        -0.132144      1.503223      0.084131
O       1.95056      7.69892     14.92913        -0.114577      0.516529     -0.118540
O      13.60544      7.71444      2.43095         0.276352      0.518346      0.307521
O      13.74913      7.75886     14.96926         0.015150     -0.643984      0.505813
O       2.09109      7.78119      6.66170        -0.574283      0.067196     -0.121697
O      13.65543      7.76080      6.71014         0.233278      0.441414      0.597423
O       1.80318      7.66585     10.82633         0.735767      1.732735     -0.260170
O      13.85401      7.75780     10.78992        -0.581040      0.541434     -0.337178
O       1.89539     11.65722      2.44343         0.279738      0.455857      0.127564
O       1.87179     11.74700     14.97408         0.363888     -0.686446     -0.057576
O      13.54509     11.68843      2.43652         0.507170     -0.703930      0.120555
O      13.63625     11.67012     15.03366         0.109443      0.165004     -0.263007
O       1.99198     11.69857      6.71543        -0.208618     -0.432136      0.043627
O      13.62321     11.62373      6.77490         0.402652      0.402692     -0.262266
O       1.93388     11.66671     10.69085        -0.036206      0.365398      0.266053
O      13.70684     11.69064     10.92031        -0.060821     -0.403410     -0.582296
O       5.79819      3.91422      2.34072        -0.281676      0.178500      0.163043
O       5.96480      3.90318     14.98315        -0.606445     -1.035539      0.370516
O       5.88119     15.57474      2.40228        -0.083451     -0.177542      0.725687
O       5.88220     15.52872     14.93491        -0.235576      0.220800      0.238579
O       5.75105      3.80424      6.50931         0.348925      0.398385      0.335744
O       5.85126     15.54056      6.56548         0.701636      0.392419     -0.019328
O       5.76676      3.85617     10.87503         0.364527      0.287378      0.164829
O       5.94432      0.09799     10.90290        -0.515102     -1.608135     -0.322960
O       5.92292      7.85945      2.41011         0.247892     -1.278479      0.350268
O       5.76927      7.84679     15.02629         0.488062     -0.103524     -0.690850
O       5.90270      7.73848      6.70260        -0.545543      0.652363      0.032978
O       5.73196      7.72523     10.79994         0.330060      0.677722     -0.091337
O       5.76021     11.63970      2.40999        -0.156938      0.090120      1.055569
O       5.79686     11.70922     14.86045        -0.004492     -0.036064      0.323635
O       5.99781     11.70342      6.51090        -0.340883     -1.014413      0.477910
O       5.85957     11.60334     10.79761         0.110860      0.730183     -0.083299
O       9.91150      3.80632      2.56838        -0.564882     -0.192322      0.185328
O       9.73938      3.75067     15.11554         0.038487      1.284731     -0.287963
O       9.60930     15.47296      2.56810         0.416536      0.377378     -0.232757
O       9.75502     15.53158     14.99465         0.251619      0.106044      0.231236
O       9.66142      3.87775      6.75668         0.338699      0.344989     -0.337135
O       9.86199     15.56764      6.76628        -0.486368      0.525301     -0.433026
O       9.84619      3.88845     10.84818        -0.006857     -0.073061      0.208165
O       9.79364     15.60405     10.72086        -0.369777      0.228078      0.226852
O       9.72077      7.74155      2.34600        -0.093088      0.558135      0.292548
O       9.56339      7.73355     14.99162         0.707279      0.340183      0.135614
O       9.80606      7.81098      6.80173        -0.104208     -0.764801     -0.352566
O       9.68901      7.90308     10.95473        -0.069887     -1.472822      0.218929
O       9.84776     11.66833      2.36164         0.013884     -0.579281      0.009625
O       9.80145     11.62587     14.98356        -0.088792      0.118800     -0.020658
O       9.80826     11.67081      6.61063        -0.105882      0.195172      0.252367
O       9.66058     11.71485     10.77842        -0.189708     -0.244947      0.370094
