  # total energy = -7881.19583449 
CRSYTAL
PRIMVEC
    15.6080000000000005    0.0000000000000000    0.0000000000000000
     0.0000000000000000   15.6080000000000005    0.0000000000000000
     0.0000000000000000    0.0000000000000000   16.6239999999999988
PRESSURE
-0.601638 -0.721263 -0.616127 -0.054227 0.001706 -0.041624
PRIMCOORD
320 1
Pb       4.02914      3.90893      4.22557        -0.342848     -0.411789     -0.137860
Pb       3.92267      3.92487     16.59287        -0.136676      0.228485     -0.034046
Pb       3.94242      0.06641      4.09283        -0.489009      0.070745     -0.081686
Pb       3.83219     15.57245     16.48709        -0.005298      0.145781      1.242186
Pb      15.56368      3.86490      4.10554         0.152139     -0.631922      0.279778
Pb      15.57317      3.79209     16.60286         0.163326      0.085651     -0.048865
Pb      15.56429     15.58060      4.07836        -0.020408      0.700125     -0.056679
Pb       0.00746      0.02602     16.60744        -0.222034     -0.153355      0.311433
Pb       3.84405      3.84641      8.25592         0.207102     -0.013388      0.325524
Pb       3.98553      0.06534      8.25597        -0.448563      0.088096     -0.487790
Pb      15.52486      3.93052      8.25063         0.294873     -0.633352      0.475557
Pb       0.03632     15.57669      8.25118         0.059631      0.358989      0.087647
Pb       3.70023      3.97071     12.64412         0.233320      0.109351     -0.942755
Pb       3.81991     15.47860     12.53946         0.523900      0.106734     -0.949492
Pb      15.57238      3.91983     12.54896         0.229171     -0.299538     -0.778018
Pb       0.13737     15.58036     12.47312        -0.706349      0.178454     -0.367468
Pb       3.74344      7.87001      3.99947         0.419817      0.569940      0.783594
Pb       3.87294      7.65709     16.58330        -0.113916      0.470447     -0.730586
Pb       0.04266      7.87684      4.05994         0.054628      0.327812      0.265534
Pb      15.53209      7.75410     16.60559         0.211160      0.130056     -0.452944
Pb       3.90227      7.77105      8.34248         0.262907     -0.153371     -0.337309
Pb      15.38191      7.74450      8.52153         0.344117     -0.065376     -0.439513
Pb       3.92071      7.84997     12.47001        -0.411087     -0.234646     -0.026530
Pb      15.41771      7.72576     12.49882         0.234684      0.077105      0.100615
Pb       3.86964     11.70825      4.08627        -0.062804     -0.225484      0.122979
Pb       3.90029     11.66295     16.54072         0.090714      0.049306      0.403448
Pb      15.56732     11.77971      4.11568         0.356116     -0.616828     -0.141243
Pb      15.58011     11.80412      0.03405         0.193054     -0.301543     -0.327255
Pb       3.84478     11.87382      8.32359         0.155186     -0.524842     -0.610980
Pb      15.55494     11.65711      8.13134         0.204508      0.156415      0.494778
Pb       3.87179     11.70886     12.32412         0.187668     -0.182811      0.204045
Pb       0.04271     11.55939     12.41897        -0.383727      0.094864     -0.220608
Pb       7.75534      3.69705      4.13991        -0.196478      0.392517     -0.255434
Pb       7.75177      3.86399     16.55047        -0.151130     -0.242548     -0.000444
Pb       7.76681     15.49236      4.14148        -0.062627      0.355626     -0.191458
Pb       7.80523      0.06216     16.60194        -0.016492     -0.604236     -0.348931
Pb       7.72099      3.81550      8.52304        -0.414573      0.438312     -0.778790
Pb       7.85770     15.56946      8.35692        -0.330535      0.210876     -0.748433
Pb       7.78144      3.70727     12.48232         0.438787      0.395971      0.696523
Pb       7.85457     15.59862     12.51170        -0.196266     -0.141877      0.244566
Pb       7.85405      7.80756      4.07486        -0.094721      0.027222     -0.257104
Pb       7.71644      7.82225     16.54060         0.060019      0.227054      0.230881
Pb       7.94027      7.86747      8.22321        -0.746496     -0.441411      0.922077
Pb       7.93112      7.62095     12.41530        -0.269583      0.252983      0.339905
Pb       7.84492     11.73853      4.05082        -0.225434     -0.552358      0.143455
Pb       7.77027     11.72254     16.48561         0.122350      0.079237      0.623899
Pb       7.71318     11.70981      8.25885         0.125285     -0.291541     -0.251193
Pb       7.82301     11.57612     12.43172         0.138207     -0.150527      0.025059
Pb      11.76742      3.85861      4.30209        -0.152307     -0.248443     -0.140648
Pb      11.73887      4.08206      0.20259         0.259991     -0.581950     -0.382697
Pb      11.48775      0.01188      4.17489         0.863953     -0.112368     -0.283439
Pb      11.64486     15.59798     16.51632         0.577132     -0.527743      0.341872
Pb      11.64694      4.09081      8.41092        -0.037862     -0.238056     -0.476104
Pb      11.54601      0.04075      8.32187         0.697813      0.004521     -0.058204
Pb      11.81077      3.75229     12.45915        -0.926145      0.211224      0.859178
Pb      11.59065     15.48981     12.36963         0.496799      0.160521      0.090248
Pb      11.70247      7.62825      3.99809        -0.334467      0.406678      0.590575
Pb      11.67534      7.82180      0.02282         0.299971     -0.157954     -0.320228
Pb      11.65807      7.81937      8.23870        -0.112049      0.383776      0.063721
Pb      11.48358      7.93570     12.50089         0.874633     -0.296593      0.083336
Pb      11.78333     11.48499      4.27868        -0.205253      0.498893     -0.440134
Pb      11.86130     11.68616     16.58790        -0.605584      0.176799     -0.194632
Pb      11.76670     11.85151      8.40916        -0.242433     -0.689197     -0.155547
Pb      11.69806     11.72966     12.38244         0.039601     -0.104145     -0.405784
Ti       1.91564      2.04055      2.10631         0.159750     -1.217902      1.487271
Ti       1.98678      1.91975     14.53577        -0.712849      0.529745      0.166933
Ti       1.90970     13.71485      2.18018         0.106633      0.518754     -0.772127
Ti       1.85387     13.62788     14.63094         0.496448     -0.759899      1.944842
Ti      13.53294      1.91307      2.19607         1.080609     -0.234361     -0.456356
Ti      13.71024      1.84727     14.63359        -0.563135     -0.172942      0.243423
Ti      13.57523     13.62327      2.26278        -0.626142      0.693674     -0.180766
Ti      13.68097     13.58062     14.60711        -0.715587      0.372095      1.142870
Ti       1.92340      1.93685      6.33011         0.188883     -0.263708     -0.269493
Ti       1.91320     13.60347      6.28402         0.668406      0.652705      0.135145
Ti      13.61395      1.90614      6.52855         0.271944     -0.345632      0.097016
Ti      13.59535     13.60424      6.40287        -0.413922      0.808020      0.191356
Ti       1.93612      1.88754     10.53676         0.246375      0.802082     -0.419759
Ti       1.90156     13.53159     10.43800         0.450650      1.422910     -0.701644
Ti      13.64910      1.95797     10.56737         0.410588     -0.735353     -1.117211
Ti      13.74505     13.72233     10.51626        -0.890706     -0.209499      0.119571
Ti       2.02842      5.77817      2.27651        -1.340313      0.009804     -1.007987
Ti       1.83917      5.86817     14.68996         1.214892      0.389924      0.527012
Ti      13.72626      5.79192      2.29516        -0.675142     -1.136258     -1.524499
Ti      13.62647      5.66136     14.66987        -0.055885      0.964325     -0.217007
Ti       1.85681      5.83275      6.43137         1.204536     -0.472255     -0.205688
Ti      13.58480      5.87148      6.45208        -0.138423     -0.493821      0.422822
Ti       1.95575      5.84251     10.49099         0.202168     -0.768122      0.945966
Ti      13.58616      5.82153     10.65161         0.024832      0.809305     -0.672330
Ti       1.97095      9.80566      2.06092        -0.510945      0.251487      0.076427
Ti       1.94147      9.76127     14.62178        -0.161062     -0.353052      0.517686
Ti      13.62012      9.67137      2.19233         0.729311      0.668402     -0.035826
Ti      13.63383      9.66782     14.69165         0.093833     -0.054552      0.466340
Ti       1.97462      9.66453      6.40266         0.571231      0.421882      0.300640
Ti      13.75757      9.68273      6.29937        -1.197435      0.217228      0.025199
Ti       1.99687      9.69439     10.48892         0.132850     -0.378273     -0.330256
Ti      13.70698      9.69814     10.46694        -0.951238      0.238521      0.494340
Ti       5.81530      1.91824      2.08192        -0.565478      0.723608      0.021913
Ti       5.82921      1.85216     14.70152         0.734698      0.063213     -0.667089
Ti       5.79794     13.67081      2.21921        -0.022582     -0.246687     -1.087280
Ti       5.81838     13.63096     14.66023         0.074685     -0.100972      0.902113
Ti       5.90024      1.98345      6.36226        -0.760881     -0.283640     -0.364718
Ti       5.80662     13.62807      6.24096        -0.112557      0.528426      0.372222
Ti       5.80062      1.87903     10.69290        -0.954089      0.223902     -0.926745
Ti       5.93210     13.62453     10.48312        -1.188833      0.859536      0.172812
Ti       5.78863      5.94310      2.14668         1.135288     -1.323183     -0.576226
Ti       5.90339      5.79873     14.61833        -0.995405      0.359406      1.636038
Ti       5.81716      5.82354      6.32897        -0.683700     -0.080516      1.078771
Ti       5.84648      5.72982     10.68149        -0.170229      0.094396     -1.251366
Ti       5.87333      9.81080      2.14224        -0.510695      0.604331     -0.205735
Ti       5.76561      9.77017     14.60197         0.431485     -0.036152      0.984931
Ti       5.81951      9.70098      6.34739        -0.722457      0.114486     -0.631464
Ti       5.91943      9.64160     10.56578        -0.567015      0.485708     -1.402645
Ti       9.68773      1.89171      2.13610         0.513331     -0.196585      0.048766
Ti       9.91728      1.93329     14.72652        -0.097023      0.032975     -0.452870
Ti       9.73633     13.56817      2.26710         0.702211     -0.036786     -0.210633
Ti       9.74907     13.58604     14.63945         0.504914     -0.034455      0.287287
Ti       9.73128      2.01424      6.38576        -0.118722      0.473442      0.047853
Ti       9.74445     13.66927      6.28722        -0.538857     -0.396129      0.745717
Ti       9.76134      1.92884     10.56665         0.367114      0.072067     -0.004435
Ti       9.64675     13.62010     10.42569         1.954297     -0.280461      0.091452
Ti       9.68410      5.70636      2.21012         0.266785      1.361198     -0.262130
Ti       9.77698      5.75770     14.81404         0.364025      0.136846     -1.186328
Ti       9.57997      5.89469      6.29638         0.495248     -1.055805      0.215735
Ti       9.77980      5.80272     10.63198        -0.247959     -0.211024     -0.564108
Ti       9.75912      9.70388      2.21854        -0.310747      0.761448     -1.049014
Ti       9.66995      9.71048     14.80673         0.716118      1.045168      0.324166
Ti       9.75344      9.76401      6.37089         0.879595      0.626415     -0.121013
Ti       9.77054      9.72453     10.51087         0.807668      0.238475     -1.010530
O       1.80507      1.96847      0.36900         0.174485      0.038881     -1.245525
O       1.95763      1.95297     12.71089        -0.058513     -0.052230      1.882509
O       1.62751     13.82818      0.34236         0.483442     -0.755231      0.875131
O       1.82962     13.50534     12.90454         0.445171      0.341357     -1.453711
O      13.66240      1.99393      0.38846        -0.186345     -0.039288      0.561023
O      13.58701      1.83411     12.86828         0.049363      0.206065     -0.579930
O      13.64374     13.76555      0.47976         0.326894     -0.729673      0.132208
O      13.68832     13.59556     12.87112        -0.060187     -0.301060     -1.173001
O       1.95577      1.85070      4.51547        -0.117747      0.289540      0.583883
O       2.04159     13.61592      4.48195        -0.410318      0.147358      0.319559
O      13.59825      1.90539      4.78371         0.008774      0.166930     -1.080162
O      13.42897     13.64869      4.67207         0.447838      0.001895     -0.985655
O       2.06560      1.82204      8.74157        -0.364661      0.177805      0.468335
O       1.94058     13.57523      8.62526        -0.078569      0.004354      0.709001
O      13.76307      1.94341      8.74859        -0.454403      0.263360      1.206707
O      13.72948     13.45743      8.77220        -0.019329     -0.000145     -0.987008
O       1.96691      5.82969      0.49647         0.225294      0.244837     -0.356886
O       1.97828      5.88517     12.93906        -0.633992     -0.343292     -0.899991
O      13.55147      5.73249      0.43469         0.364664     -0.199789      0.729915
O      13.72161      5.74599     12.86151         0.001727      0.208373      0.256847
O       1.87046      5.56625      4.66086        -0.111151      1.153275     -0.535623
O      13.61927      5.71996      4.70176         0.173024      0.213641     -0.651157
O       2.05839      5.71287      8.73898        -0.367951      0.733026      0.103952
O      13.62371      5.94176      8.79658        -0.317523     -0.221868      0.139368
O       2.14306      9.77640      0.30432        -0.821307     -0.194959      0.204879
O       2.12242      9.76073     12.81703        -0.970350      0.265012      0.393769
O      13.52811      9.61888      0.40920         0.283031      0.008598      0.356577
O      13.64856      9.58651     12.92205         0.159996      0.501345     -0.162681
O       1.87360      9.71027      4.64374        -0.131938     -0.107270     -1.226709
O      13.82253      9.66281      4.47746        -0.399256      0.144000      0.483959
O       2.08598      9.68948      8.69967        -0.203625      0.255373      0.073847
O      13.66600      9.79075      8.66882         0.257201     -0.686837     -0.022913
O       5.75718      1.93141      0.27851         0.352720     -0.190071     -0.126820
O       5.91641      1.76202     12.87971        -0.075870      0.267175      0.977716
O       5.92129     13.59852      0.45231         0.077679      0.204658      0.005643
O       5.67381     13.75118     12.91976         0.284270     -0.288948     -0.820354
O       5.91656      2.12983      4.52350        -0.168975     -0.439362      0.623726
O       5.63505     13.60914      4.45890         0.550379      0.022616     -0.173630
O       5.88862      2.05977      8.81610         0.204735     -0.686025      0.994805
O       5.86403     13.72294      8.69096         0.226307      0.079852      0.375905
O       5.73189      5.81885      0.30511        -0.040434      0.356470      1.243368
O       5.89380      5.78991     12.88980         0.300900      0.479129     -0.218138
O       5.76704      5.68879      4.56184         0.326984      0.340404     -0.463297
O       5.75782      5.72688      8.89710         0.176276     -0.054252      0.263350
O       5.79965      9.86568      0.36474         0.114537     -0.170052      0.360768
O       5.94582      9.86704     12.83510         0.045556     -0.159656     -0.830534
O       5.77428      9.75349      4.54045         0.477511      0.028000      0.242725
O       5.80003      9.72972      8.73841         0.134193     -0.090856      0.483099
O       9.85229      2.00024      0.34037        -0.477736     -0.427666      0.716858
O      10.02225      1.80266     12.91933        -0.887114     -0.038147      0.358230
O       9.82123     13.63628      0.53933        -0.195052      0.062227     -1.571949
O       9.88542     13.78202     12.86067        -0.453667     -0.741050     -0.333878
O       9.62246      1.95898      4.59058        -0.031303     -0.237567     -0.045137
O       9.76073     13.80076      4.48768        -0.022509     -0.574224      0.505158
O       9.69513      2.05409      8.75674        -0.024161     -0.164033      0.285737
O       9.55610     13.59823      8.64041         0.360813      0.310342      0.331020
O       9.91378      5.77040      0.37718        -0.539532     -0.018852      0.428409
O       9.78107      5.93654     13.01298        -0.268477      0.320914      0.077770
O       9.48328      5.93528      4.49268         0.472406      0.159865      0.223485
O       9.72509      5.78680      8.84655         0.326920     -0.165181     -0.050531
O       9.62383      9.83419      0.41536         0.991544     -0.374430      0.664481
O       9.73247      9.72357     13.03051        -0.052458     -0.145414     -1.607479
O       9.70998      9.74722      4.57300        -0.228314     -0.178829     -0.178312
O       9.90438      9.70830      8.75016        -0.497082     -0.102574     -0.697302
O       3.88682      1.90506      2.37760        -0.430115      0.010718      0.260783
O       3.88974      1.82840     14.79146        -0.275978      0.405724      0.330045
O       3.79659     13.79856      2.33986         0.106981     -0.182654      0.117335
O       3.90436     13.71295     15.26529        -0.453950     -0.792666     -1.714402
O      15.45031      2.05932      2.48454         0.941764      0.035511      0.219281
O      15.60717      2.03353     14.82139         1.022238     -0.587549      0.159832
O      15.56991     13.60684      2.72986        -0.436278      0.127543     -0.589546
O      15.55921     13.56334     14.90197         0.723917      0.086729      0.229148
O       3.92903      1.99112      6.65601         0.090135     -0.096942     -0.060665
O       3.90630     13.55621      6.60786        -0.155962      0.074279      0.260871
O       0.04234      1.90525      6.72357        -0.126305     -0.058198     -0.016996
O      15.48522     13.66689      6.52362         1.568048     -0.444667      0.131405
O       3.93422      2.05334     10.85412        -0.357878     -0.720841      0.126789
O       3.80579     13.70644     10.82773         0.496544     -0.451269     -0.222793
O      15.53554      1.94917     10.95463         0.242698      0.279822     -0.304352
O       0.03052     13.60853     10.79195        -0.283093     -0.053094      0.419008
O       3.87610      5.67469      2.54652         0.866630      0.954351     -0.006075
O       3.82121      5.93587     14.86964         1.178223     -0.331942      0.566546
O      15.57831      5.58722      2.45213        -0.155616      0.774555      0.357121
O      15.58880      5.80225     15.00487        -0.464906     -0.130822      0.187707
O       3.81255      5.67011      6.70744         0.930881      0.507951     -0.333298
O      15.56157      5.94719      6.93276        -0.028071     -0.377108     -0.829295
O       3.95821      5.77568     11.02937        -0.832399      0.098708     -0.238388
O      15.57106      5.85836     10.82461         0.927994      0.138450     -0.119775
O       3.79930      9.87303      2.40511         0.775259     -1.166952      0.770362
O       3.90353      9.68244     14.90016         0.082855      0.416366     -0.109363
O      15.58719      9.65110      2.40618        -0.333123      0.140834     -0.043774
O       0.03303      9.77874     15.03202        -0.062347     -0.185860     -0.200501
O       3.90696      9.75298      6.45922         0.506390      0.464748      0.904804
O       0.04256      9.67560      6.68179        -0.928956      0.095757      0.184183
O       3.92572      9.77592     10.90153         0.733165      0.468852     -0.278105
O       0.03757      9.53357     10.80620         0.155994      0.448295      0.027886
O       7.73700      1.86195      2.41675         1.356006      0.169805     -0.130094
O       7.77366      2.00905     14.97150        -0.059876     -0.686666      0.126269
O       7.78590     13.52001      2.50207        -0.463225      0.566739      0.532178
O       7.86280     13.56960     14.91205        -0.816733      0.575509     -0.042994
O       7.74549      1.91372      6.76074         0.793088     -0.004622     -0.060791
O       7.82659     13.76086      6.44768        -0.569148     -0.027144      0.317256
O       7.87995      1.74173     10.98915        -0.182178      0.868598     -0.382512
O       7.85686     13.75313     10.75842        -1.339119     -0.199244      0.505098
O       7.70470      5.95320      2.44044         0.146319     -0.287936     -0.290941
O       7.83035      5.85527     15.03809        -0.687416      0.125957     -0.029517
O       7.74679      5.87471      6.84781        -0.142724      0.426470     -0.757271
O       7.84186      5.81996     10.89696        -0.317082     -0.055376      0.381417
O       7.78628      9.86879      2.38747        -0.498095     -0.492360      0.677318
O       7.79938      9.75034     15.04772        -0.834994      0.152877     -0.270250
O       7.83506      9.64442      6.69764        -0.759518      0.210872     -0.096767
O       7.91109      9.76360     10.68801        -1.720231     -0.045629      0.804622
O      11.66508      1.90107      2.61487        -1.212253      0.147570     -0.243622
O      11.80599      1.98307     15.01010        -1.172338     -0.459009      0.091875
O      11.69842     13.61530      2.57595         0.041321      0.164221      0.016917
O      11.72892     13.53651     14.95529         0.228033      0.334134      0.162654
O      11.63834      2.04686      6.64498        -0.474871     -0.414221      0.531570
O      11.63382     13.66905      6.77672         0.081704      0.003695      0.133574
O      11.66605      1.80402     10.82644         0.437580      0.795499     -0.276488
O      11.76767     13.53490     10.67503        -0.436069     -0.076686      0.307883
O      11.69548      5.80469      2.55239        -1.123670     -0.231294      0.175700
O      11.73845      5.69307     14.95522        -0.332642      0.488869      0.346032
O      11.61448      5.82485      6.70147         0.548078      0.042690     -0.069633
O      11.68737      5.79012     10.90482        -0.269469      0.220462     -0.002074
O      11.71124      9.74211      2.65466        -0.201263     -0.631152     -0.535209
O      11.71362      9.82047     15.02882         0.267713     -0.529222      0.038670
O      11.70633      9.67723      6.59012         0.010826      0.183558     -0.163690
O      11.70853      9.72334     10.75628         0.272059     -0.220010      0.822639
O       1.95358      3.90635      2.42921        -0.098457     -0.885797      0.333240
O       1.94970      3.89583     15.02470         0.289055     -0.662005     -0.651825
O       1.78047      0.05586      2.35568        -0.203304     -0.312891      0.607245
O       1.98297     15.55938     14.83343        -0.578190      0.974260     -0.209908
O      13.42649      3.85473      2.74057         0.773317      0.089605     -0.798854
O      13.66881      3.79922     14.85575         0.297544      0.700788      0.314472
O      13.63890     15.60413      2.52865         0.062609     -0.018251      0.230284
O      13.73276     15.53058     15.00458        -0.356454      0.172351     -0.295161
O       1.91636      3.83830      6.66159        -0.530698      0.033783      0.358002
O       2.07237     15.54710      6.70363        -0.495631     -0.144477     -0.347005
O      13.59126      3.83166      6.90886         0.314674      1.505322     -0.590368
O      13.70448     15.59305      6.91053        -0.993326     -0.353307     -0.458382
O       1.91644      3.89035     10.85028        -0.000217      0.541372      0.201606
O       1.82497      0.00923     10.86707         0.524841     -0.648754     -0.083158
O      13.50006      3.92833     10.90656         0.875291     -1.155936     -0.538427
O      13.65970     15.59714     10.67514         0.209041     -0.594324      0.351010
O       1.83251      7.77167      2.54667         0.778895     -0.256225     -0.122215
O       1.88773      7.82601     14.97425        -0.103391     -0.200777      0.228148
O      13.57900      7.65184      2.46562         0.461406      0.949692      0.381617
O      13.72001      7.70831     14.99779        -0.347270      0.316858      0.144323
O       2.11729      7.78818      6.61843        -0.548608     -0.986057      0.088957
O      13.61806      7.81305      6.62487         0.165394     -0.675193      0.301793
O       2.16209      7.83907     10.75388        -0.368773     -1.477778      0.028554
O      13.62873      7.73227     10.95563        -0.095080      0.373466     -0.412053
O       1.91905     11.71600      2.35129        -0.467218      0.200951      0.302778
O       2.02720     11.71549     14.95193        -0.257499     -0.074330      0.081523
O      13.58900     11.63753      2.43136         0.433061     -0.016352      0.368858
O      13.76569     11.60896     15.08585        -0.510438      0.779895     -0.272684
O       1.94620     11.71572      6.66199        -0.289718     -0.142109     -0.007333
O      13.52140     11.64204      6.54751         0.670008     -0.027820      0.350827
O       1.91306     11.69297     10.72694         0.010773     -0.694171      0.329786
O      13.71595     11.50933     10.78137         0.287945      1.070500      0.721627
O       5.88577      3.80244      2.32108        -0.129488      1.115889      0.383265
O       5.77864      3.90391     15.01485         0.125103     -0.174037     -0.535082
O       5.86665      0.00288      2.50961         0.033786     -0.334298      0.202168
O       5.83313     15.48411     15.11565         0.528760      1.719874     -0.411403
O       5.89999      3.91109      6.74123         0.089568     -0.093073     -0.250323
O       5.75190      0.00205      6.43911         0.202240      0.098332      0.560720
O       5.94243      3.84373     11.10433         0.128528     -0.384912     -0.700213
O       5.80877     15.57898     10.97208         0.139707     -0.180825     -0.635679
O       5.75058      7.84549      2.39388        -0.270557     -0.475163      0.134229
O       5.84240      7.91743     15.03650         0.261434     -1.517711     -0.449052
O       5.69973      7.74812      6.61000         0.514928      0.119933      0.101157
O       5.85080      7.82058     10.81385         0.190009     -0.484300      0.465875
O       5.63654     11.73622      2.45619         0.613391     -0.370889      0.341835
O       5.83533     11.74441     14.86969        -0.141763     -0.700292      0.297749
O       5.93421     11.76839      6.68447         0.000357     -0.912000     -0.185084
O       5.97240     11.78153     10.70419        -0.234165     -0.250180      0.602135
O       9.65604      3.89562      2.42919         0.010829     -0.760447      0.224178
O       9.67297      3.85543     14.91422         0.256888      0.212602      0.259328
O       9.70576     15.58855      2.48809        -0.072245      0.624662      0.026794
O       9.73124     15.58022     14.99593         0.206726      0.302470      0.366139
O       9.62803      4.00338      6.49196         0.102709     -0.988087      0.570237
O       9.78182      0.01630      6.71292        -0.196839      0.257098     -0.001953
O       9.72967      3.87334     11.06735         0.102502     -0.774316     -0.797179
O       9.82026     15.54460     10.73151        -0.074652     -0.061833     -0.142177
O       9.71982      7.76111      2.44288         0.081249      0.588533      0.234992
O       9.78240      7.86793     15.10830         0.084418     -1.445461      0.090693
O       9.76899      7.79140      6.74258        -0.240824     -0.135735     -0.304909
O       9.73485      7.76223     10.81903         0.149725      0.156452      0.570403
O       9.74647     11.65607      2.54556         0.243944     -0.113434      0.506857
O       9.73268     11.70461     14.92538         0.074074      0.202155      0.185291
O       9.65144     11.69872      6.73288         0.349351      0.156484     -0.755107
O       9.75263     11.65339     10.81876        -0.064910      0.977136      0.326140
