  # total energy = -7883.20007790 
CRSYTAL
PRIMVEC
    15.6080000000000005    0.0000000000000000    0.0000000000000000
     0.0000000000000000   15.6080000000000005    0.0000000000000000
     0.0000000000000000    0.0000000000000000   16.6239999999999988
PRESSURE
0.001974 -0.113497 1.4699 -0.164182 0.340286 -0.034052
PRIMCOORD
320 1
Pb       3.91257      3.79891      4.10052         0.189540      0.134747      0.148863
Pb       3.98529      3.94229      0.01749        -0.138788     -0.345102     -0.196701
Pb       3.90724     15.56523      4.00985         0.330803      0.050767      0.342715
Pb       3.89784     15.57107     16.54200        -0.206439      0.126292      0.258984
Pb       0.02880      3.89236      4.07986         0.180047     -0.326660      0.892645
Pb      15.60240      3.80994     16.60240         0.198547      0.237599      0.212720
Pb      15.58981     15.48895      4.03895        -0.099108      0.400068      0.431253
Pb      15.58589     15.59204     16.55503         0.056643     -0.009152     -0.041484
Pb       3.83854      3.79975      8.22585        -0.103848      0.135230      0.029016
Pb       3.85169     15.53588      8.14193        -0.287963     -0.563335      0.484170
Pb      15.49050      3.85491      8.26175         0.519201      0.116217      0.333377
Pb      15.51313     15.54143      8.22446         1.229990     -0.117293      0.938869
Pb       3.77920      3.83732     12.46564         0.610504      0.174366      0.320892
Pb       3.88859     15.59518     12.54931         0.057317     -0.476354     -0.742103
Pb       0.05877      4.04564     12.55459        -0.045788     -0.729827     -0.371489
Pb       0.07603      0.08121     12.60665        -0.237187     -0.174440     -0.241784
Pb       3.88127      7.84628      4.00271        -0.171222      0.107271      0.663876
Pb       3.90922      7.77944     16.51953        -0.346621      0.035688      0.261715
Pb      15.49642      7.83160      4.10981         0.989551     -0.289761      0.813332
Pb      15.57677      7.74043     16.51408         0.025359      0.047364      0.493334
Pb       3.77472      7.74715      8.30288         0.126973     -0.171940      0.056808
Pb      15.37190      7.70322      8.50670         0.735201     -0.080255     -0.775059
Pb       3.93478      7.74560     12.35755        -0.028925      0.640053      0.106890
Pb      15.51035      7.79658     12.46245         0.311370      0.887036      0.457389
Pb       3.84899     11.72046      4.02277         0.104090     -0.417499      0.686149
Pb       3.81772     11.74570     16.61826         0.315575     -0.050703     -0.081594
Pb      15.52296     11.62775      4.01884         0.600724      0.090003      0.713592
Pb      15.55998     11.68931     16.53769        -0.025800     -0.236252      0.159227
Pb       3.85898     11.78740      8.32430        -0.171636     -0.193037     -0.427036
Pb       0.03983     11.69198      8.23878         0.204832      0.182724      0.251907
Pb       3.86006     11.63185     12.37235         0.179084      0.006068     -0.154885
Pb       0.05588     11.74425     12.47823        -0.405868     -0.186279     -0.143836
Pb       7.77836      3.76197      4.13111         0.283086      0.306296     -0.094443
Pb       7.80875      3.95886     16.54420        -0.162261     -0.090329      0.678738
Pb       7.75348     15.57160      4.14668         0.131509     -0.156357     -0.107705
Pb       7.78600      0.10937     16.58060         0.324569     -0.770130      0.443052
Pb       7.78590      3.80742      8.35694        -0.411060      0.302282     -0.928417
Pb       7.81950      0.03267      8.17239        -0.465329     -0.240707      0.209729
Pb       7.84433      3.74583     12.40391        -0.469537      0.565730      1.054385
Pb       7.71627     15.56279     12.37355         0.007232     -0.066468      0.135868
Pb       7.86287      7.82092      4.17175         0.334490     -0.170742     -0.246156
Pb       7.60724      7.69659     16.59576         1.050989      0.468485      0.284686
Pb       7.79937      7.72021      8.18937         0.236735      0.150248      0.259395
Pb       7.69145      7.80041     12.40709        -0.247441     -0.178156      0.741348
Pb       7.82179     11.71573      4.14136         0.299494     -0.314652      0.206628
Pb       7.70759     11.81588     16.54122         0.332197     -0.654813      0.541371
Pb       7.87620     11.74030      8.30997        -0.479192     -0.411378     -0.256699
Pb       7.77803     11.71752     12.39368        -0.180581     -0.424331      0.374709
Pb      11.81489      3.77821      4.20141        -0.654496      0.175298     -0.164444
Pb      11.68314      3.98373      0.14847         0.245799     -0.242560      0.136785
Pb      11.62844     15.45757      4.07805         0.398586      0.541906      0.404483
Pb      11.63680     15.57765     16.51978         0.390413     -0.368456      0.792344
Pb      11.72113      4.02107      8.40363         0.251765     -0.159619     -0.049759
Pb      11.75154      0.12889      8.34397         0.046154     -0.489044      0.183440
Pb      11.73680      3.86358     12.41333        -0.128996      0.071109      0.482043
Pb      11.50440      0.08179     12.39727         0.473105      0.026311      0.606631
Pb      11.76153      7.91505      4.24107        -0.759881     -0.663642     -0.183873
Pb      11.67486      7.80334     16.59165         0.066679     -0.295079      0.338471
Pb      11.70297      7.72971      8.37039        -0.373478      0.082256     -0.072358
Pb      11.57482      7.98509     12.50176         0.184294     -0.798550      0.506007
Pb      11.88659     11.52438      4.14432        -0.963715      0.570135      0.173851
Pb      11.55709     11.63610     16.53378         0.355108      0.138553      0.529578
Pb      11.73976     11.85139      8.50278         0.419730     -0.239076     -0.675609
Pb      11.61008     11.72504     12.44185         0.377416     -0.030419      0.074498
Ti       1.98742      1.99942      2.25014        -0.089844     -0.997404      0.284119
Ti       2.03186      1.99368     14.68468        -0.115020      0.042264      0.004592
Ti       1.89478     13.66744      2.20132         0.503496     -0.297993     -0.729745
Ti       1.90631     13.63562     14.61498         0.128192      0.645851      0.576824
Ti      13.69427      1.90263      2.30932        -0.194229     -0.456051      0.604316
Ti      13.75969      1.96088     14.63397        -1.388080     -0.821462      0.132351
Ti      13.64283     13.56636      2.11886        -0.619519      1.079751      1.436669
Ti      13.62190     13.58835     14.68609        -0.038810      0.730515     -0.746512
Ti       1.89863      1.82282      6.37880         0.101634      0.247887     -0.511687
Ti       1.90711     13.53240      6.20003         0.208160      0.091855      2.198413
Ti      13.63454      1.88591      6.42588         0.440962      0.822693     -0.391837
Ti      13.61676     13.60959      6.40200         0.198452     -0.258833      0.070748
Ti       1.97968      1.86405     10.63034        -0.506510      0.270802     -2.397823
Ti       1.90009     13.63317     10.52238         0.452858      0.656019     -1.210207
Ti      13.72373      1.99554     10.57644        -0.254585      0.246219     -0.007131
Ti      13.60774     13.79620     10.66354         0.804119     -1.252718     -0.250781
Ti       1.90598      5.86900      2.21997         0.182109      0.116793     -0.104504
Ti       1.94718      5.94543     14.56315         0.189697     -0.824052      1.574848
Ti      13.62894      5.85701      2.30599        -0.198957     -0.883394     -0.910874
Ti      13.64472      5.71798     14.68215        -0.497651      1.516505      0.832750
Ti       1.86403      5.73274      6.35833         0.018762      0.343061      0.954373
Ti      13.56474      5.87065      6.35502         0.791333     -0.697379      0.728522
Ti       1.87179      5.83105     10.59271         0.544628     -0.384123     -1.415724
Ti      13.58700      5.96883     10.69152        -0.471620     -1.093147     -0.633741
Ti       1.95238      9.70841      2.21212        -0.082689      0.783503      0.714721
Ti       1.95213      9.79678     14.71815        -0.353072     -0.724336     -0.583099
Ti      13.67048      9.67012      2.21043        -0.054179      0.323343     -1.933534
Ti      13.62097      9.66645     14.78694         0.434469      0.202880      0.090960
Ti       2.00715      9.61658      6.43768        -0.470453      0.375185     -0.042373
Ti      13.71336      9.72747      6.46941        -0.024707      0.453041      0.197006
Ti       1.91060      9.76170     10.47995         0.292413      0.182145      0.002349
Ti      13.67487      9.85223     10.61273        -0.007526      0.368743      0.261517
Ti       5.93142      1.93400      2.14952        -0.313995     -0.163191      0.865629
Ti       5.94868      1.82195     14.62456        -0.877916      1.115623      1.253000
Ti       5.92867     13.56566      2.28624        -0.080888      0.359244      0.368055
Ti       5.82770     13.54554     14.64841        -0.144680      0.321936     -0.400110
Ti       5.80976      1.78895      6.29886         0.647828      1.206079     -0.884065
Ti       5.89989     13.46864      6.37721        -0.614047      0.326623     -1.350503
Ti       5.77934      1.95221     10.51842         0.387691     -0.867171      0.259153
Ti       5.82109     13.62344     10.53720        -0.299790     -0.110958     -1.164943
Ti       5.81794      5.88795      2.20904         0.301874     -0.723955      0.500068
Ti       5.83248      5.79253     14.76867        -0.045491     -0.625608     -1.304284
Ti       5.76023      5.82677      6.26375         0.173829     -1.656024      0.362697
Ti       5.74682      5.72527     10.59612         0.572489      0.655592     -0.410263
Ti       6.00033      9.72337      2.22771        -0.164039      0.581186      1.601602
Ti       5.80249      9.67979     14.62837         0.498705      0.444597      0.376030
Ti       5.89138      9.60205      6.32434         0.077127      1.460155     -0.260113
Ti       5.88452      9.73172     10.50649        -0.776343     -0.153256      0.064606
Ti       9.84540      1.91673      2.22883        -0.429348     -0.095734      0.888956
Ti       9.85603      1.93568     14.81088         0.392778     -0.241556     -0.731895
Ti       9.83058     13.56757      2.23663        -0.293559      0.052120     -0.337870
Ti       9.70455     13.61962     14.62227         0.187022      0.273062      1.595498
Ti       9.82655      1.97390      6.43744        -0.812760      0.287037     -1.222691
Ti       9.77707     13.64386      6.37728        -0.072386     -0.062433      0.074339
Ti       9.72573      1.96401     10.53146         0.198427     -0.296959      2.002053
Ti       9.73057     13.63213     10.46183        -0.769580      0.328552      1.820229
Ti       9.77382      5.81019      2.25671        -0.462116     -0.008127      0.035846
Ti       9.80756      5.83524     14.81032        -0.368970     -0.017004      0.397608
Ti       9.69631      5.81740      6.35250         0.676012      0.718896     -1.346642
Ti       9.63515      5.83437     10.74758         0.289019      0.071024     -0.174085
Ti       9.86603      9.65757      2.09965        -1.572757      0.627572      0.073280
Ti       9.67056      9.69475     14.69424        -0.368562      0.088209      0.287133
Ti       9.89558      9.75944      6.44902        -0.878110      0.050369      0.254614
Ti       9.74770      9.73507     10.50186        -0.453126     -0.353911      0.569601
O       1.90652      1.99195      0.48042        -0.074225     -0.060484     -0.657632
O       1.99411      1.89029     12.88793        -0.066555     -0.015465     -0.457253
O       1.93653     13.77923      0.39709         0.052091     -0.723493      0.154343
O       1.87196     13.69294     12.84760         0.149422     -0.058251     -0.333958
O      13.91732      1.99412      0.59300        -0.398993     -0.108170     -1.329021
O      13.71502      1.96616     12.85775         0.025702      0.138533      0.374488
O      13.67160     13.69907      0.40072         0.023918     -0.382231     -1.022857
O      13.70284     13.61373     12.88610        -0.114606     -0.059737      0.143611
O       1.95161      1.75826      4.58782         0.148696      0.569686      0.032636
O       1.79579     13.45852      4.46067         0.317312      0.618859     -0.577016
O      13.55129      1.86932      4.64430         0.317253      0.122061      0.652007
O      13.66008     13.58543      4.65597        -0.069525     -0.020768     -0.241871
O       1.96518      1.93938      8.79974         0.184231     -0.156809      0.768960
O       2.12838     13.71390      8.71694        -0.218087     -0.362692      0.737346
O      13.62875      1.94939      8.78256        -0.053978     -0.246287      0.048782
O      13.53040     13.62992      8.89445        -0.165956      0.174401     -0.875557
O       1.85613      5.83966      0.45144         0.088729      0.008003      0.143697
O       1.95866      5.98389     12.82180        -0.055451     -0.142124     -0.745303
O      13.61141      5.71263      0.51428         0.702810      0.159603      0.715336
O      13.53269      5.86430     12.92895         0.629808     -0.204400     -0.154793
O       2.01317      5.74351      4.62759        -0.057453      0.308407     -0.678097
O      13.56210      5.95287      4.60094         0.025175     -0.128701     -0.306726
O       1.82842      5.59996      8.81951         0.071593      0.691042      0.539753
O      13.61542      5.87490      8.87040         0.040664      0.237866      0.297109
O       1.93722      9.78740      0.47301         0.103071     -0.042677     -1.067179
O       1.89551      9.78777     12.94878         0.068671     -0.145757     -0.035027
O      13.69106      9.70851      0.39954        -0.012470     -0.140162      0.844254
O      13.84005      9.77393     13.04523        -0.749344     -0.387935     -0.794588
O       2.00652      9.66238      4.67496        -0.335887     -0.019526     -0.487034
O      13.59797      9.75242      4.64630        -0.049476     -0.312933      0.048387
O       1.83714      9.89255      8.70697         0.281658     -0.293410      0.281710
O      13.70594      9.70745      8.86113        -0.149183      0.268742     -1.160226
O       5.85865      1.89949      0.38386         0.094555     -0.257775     -0.013665
O       5.80377      1.86737     12.86733         0.050434     -0.209362      0.079562
O       5.91922     13.43913      0.51202        -0.417713      0.157048     -0.604036
O       5.87908     13.59249     12.87808        -0.175099      0.184258      0.534117
O       5.89434      1.82058      4.46215        -0.267985      0.322878      1.159150
O       5.95584     13.55059      4.48650         0.082908      0.107708      1.236999
O       5.88475      1.92201      8.76448         0.002512      0.098601     -0.736062
O       5.95144     13.65358      8.66180        -0.418650     -0.297472      0.847228
O       5.76060      5.87731      0.40144         0.311341     -0.084596      0.299423
O       5.78572      5.79499     13.01399        -0.192171      0.070146     -0.715801
O       5.79955      5.84562      4.49449        -0.162506      0.175173     -0.185640
O       5.84516      5.66588      8.84487         0.220882      0.156774     -0.245679
O       5.95881      9.87464      0.51227        -0.321824     -0.188277     -1.323563
O       5.74673      9.54500     12.88717         0.220019      0.703393     -0.276916
O       5.89529      9.59968      4.50964        -0.161945     -0.278557      1.498896
O       5.83088      9.72857      8.77780         0.265610     -0.100286     -0.912273
O       9.92885      1.71923      0.48083        -0.672657      0.524484     -1.153451
O       9.84228      1.93380     13.01608        -0.204920      0.128366      0.334882
O       9.89487     13.81127      0.49239        -0.274794     -0.454091     -0.491022
O       9.71191     13.47194     12.90193        -0.022444      0.264067     -0.930322
O       9.87624      2.14212      4.65660        -0.211243     -0.523732      0.925386
O       9.72165     13.67349      4.60893         0.278912     -0.443355      0.043494
O       9.82518      1.98599      8.83279        -0.383471     -0.082168     -1.923973
O       9.58563     13.75477      8.75292         0.525697     -0.154238     -0.945909
O       9.61511      5.80476      0.42063         0.644490      0.058331      0.828281
O       9.74435      5.65217     13.08829         0.123003      0.045252     -0.912627
O       9.81398      5.95067      4.55797         0.002121     -0.387709      0.425679
O       9.68597      5.97005      9.00111         0.098247     -0.378928     -0.733566
O       9.82638      9.60928      0.33419        -0.111142      0.347587     -0.140585
O       9.67628      9.80880     12.90553         0.435690     -0.059438      0.109108
O       9.95672      9.83199      4.68976        -0.078437     -0.280798     -0.726079
O       9.78216      9.55409      8.76118        -0.032707      0.072567      0.013497
O       3.94062      1.86959      2.54166        -0.492929      0.066888     -0.116679
O       3.89334      1.97876     15.00858        -0.029523     -0.321541     -0.069646
O       3.91336     13.53741      2.49047        -0.073573     -0.058511     -0.104253
O       3.86092     13.67780     14.97840         0.452439     -0.172773      0.099748
O       0.00496      1.89620      2.64775         0.822099     -0.155991      0.046403
O       0.01577      1.96453     14.95761         0.183868      0.324573      0.128453
O      15.53874     13.64987      2.41363         0.492070     -0.172127      0.225460
O       0.02302     13.62663     14.91089        -0.247246     -0.441995      0.499475
O       3.89276      1.87879      6.69078         0.338384     -0.192420     -0.336537
O       3.92344     13.57855      6.59470         0.103923      0.433694     -0.161936
O       0.02747      1.95345      6.79929        -0.927331     -0.253136     -0.501983
O       0.03398     13.60862      6.68862        -0.625850      0.007260      0.034085
O       3.92495      1.94488     10.81797        -0.597585     -0.174305      0.458579
O       3.93384     13.55944     10.90336         0.123879      0.197311     -0.081584
O      15.57751      1.92561     10.82668         0.570650     -0.066714      0.426232
O      15.60775     13.63960     10.61002        -0.275989      0.168117      0.989869
O       3.85947      5.87373      2.46825         0.443238      0.092374      0.024794
O       3.87795      5.71261     15.00415        -0.536181      0.838884      0.209673
O       0.02862      5.78873      2.69451        -0.309006      0.397038     -0.465131
O       0.00397      5.91694     14.84386        -0.168184     -0.437855      0.092389
O       3.85687      5.78808      6.80727         0.315309      0.468282     -0.528952
O      15.52377      5.84437      6.68779         0.034456     -0.376591     -0.034558
O       3.81412      5.90384     10.85444         0.396876     -0.419586     -0.005849
O      15.58558      5.85910     11.02491        -0.346631      0.069130     -0.271494
O       3.84655      9.74364      2.56389         0.381839     -0.090053     -0.480878
O       3.94116      9.73361     15.03398        -0.573529      0.002097      0.275827
O      15.52241      9.70013      2.60702         0.672900      0.089857     -0.196074
O      15.59591      9.67294     15.08091         0.733515      0.174403      0.108846
O       3.88667      9.66425      6.73685         0.686265     -0.329699     -0.016262
O      15.59208      9.79887      6.72433        -0.570233     -0.348729     -0.175697
O       3.85397      9.71314     10.79063         0.106085      0.505374      0.232509
O      15.56736      9.91151     10.93569         0.467072     -0.450831     -0.251955
O       7.83038      1.97526      2.48626        -0.299174     -0.053368     -0.023733
O       7.81486      1.85440     14.90301         0.168203      0.237275      0.421190
O       7.95300     13.59106      2.45828        -1.599414     -0.229608      0.440305
O       7.76104     13.62545     14.97942         0.151979      0.130704     -0.010830
O       7.79856      1.90517      6.64301         0.310461      0.664956      0.395180
O       7.79902     13.53055      6.65192         0.625415      0.131874      0.093252
O       7.76676      1.97559     10.85130        -0.006238     -0.190353     -0.034032
O       7.78440     13.49967     10.94931         0.512191      0.749528     -0.555734
O       7.86416      5.73367      2.54561        -1.279586      0.340753     -0.063239
O       7.76455      5.90162     15.05017         0.328069     -0.584929      0.198893
O       7.85683      5.78842      6.56981        -1.616363      0.380306      0.594778
O       7.71215      5.79967     11.01914         0.138580     -0.349685     -0.200769
O       7.87554      9.67412      2.64214         0.234364      0.250583     -0.424545
O       7.79595      9.76822     15.02344        -0.244042     -0.399160     -0.256815
O       7.87103      9.76379      6.66124        -0.850758     -0.356548      0.045118
O       7.78202      9.72004     10.85553         0.604841     -0.164047     -0.127310
O      11.71186      1.88177      2.55620         1.009482      0.396171      0.080828
O      11.81373      1.75910     15.05049        -0.425655      0.936134     -0.418346
O      11.70692     13.67224      2.57060         0.954148     -0.377923      0.031610
O      11.70856     13.66310     14.94113         0.060742     -0.296665     -0.191266
O      11.72682      1.91347      6.84162        -0.176186      0.165544     -0.342863
O      11.67458     13.67801      6.73589         0.443444      0.149611      0.170886
O      11.63952      1.94154     10.93135        -0.050704     -0.321829     -0.307021
O      11.61031     13.62084     10.90918        -0.370121      0.270744     -0.272027
O      11.74129      5.83656      2.54358        -0.022981     -0.148583     -0.182638
O      11.71518      5.73887     15.23342        -0.375070      0.450844     -0.740783
O      11.68079      5.79271      6.79446         0.118757      0.385956      0.015564
O      11.76504      5.86929     11.07496        -1.344095      0.262540     -0.654423
O      11.70934      9.65923      2.45557         0.935718     -0.073304      0.497675
O      11.70134      9.70003     15.02970        -0.061997      0.218387     -0.377542
O      11.75625      9.73136      6.74932         0.474581     -0.079283      0.371866
O      11.69294      9.66496     10.93533        -0.670238      0.257223     -0.222914
O       1.97023      3.86471      2.53353        -0.061871      0.355095      0.122685
O       1.88546      3.94705     14.78909        -0.047780     -0.354188      0.281310
O       2.07556     15.55293      2.51315        -0.827849     -0.209839     -0.023249
O       1.88319      0.00523     14.84819         0.227871      0.201363      0.495324
O      13.76774      3.85062      2.70371        -0.725448      0.390780     -0.371230
O      13.52866      3.89775     15.10313         0.956145     -1.127872     -0.447691
O      13.64086     15.52681      2.65318         0.133354      0.048988     -0.592452
O      13.81315     15.58604     14.92837        -0.080402      0.043338      0.036311
O       1.93527      3.81014      6.64688         0.046280      0.260870      0.044020
O       1.88687     15.52158      6.64041         0.363510     -0.039176     -0.032427
O      13.59452      3.86834      6.79284        -0.066809      0.177449     -0.522954
O      13.75510     15.59218      6.81524        -1.047110     -0.238093     -0.620992
O       1.92646      3.86975     10.96724        -0.118008      0.337784      0.348848
O       2.07338     15.58955     10.85239        -0.363294      0.115306      0.509216
O      13.51784      3.90307     10.79592         0.676715      0.024981      0.434477
O      13.57058      0.01720     10.84619        -0.068010      0.290473      0.313571
O       1.85025      7.83746      2.59819         0.187945     -0.995840     -0.263687
O       1.98933      7.83325     15.02644         0.159501     -0.604190     -0.057211
O      13.69546      7.79384      2.59808        -0.240211     -0.518581     -0.245818
O      13.64009      7.66003     15.17819        -0.206689      0.686352     -0.762869
O       1.83089      7.72537      6.83487         0.470616      0.034258     -0.085296
O      13.59935      7.74608      6.85826         0.160187      0.771110     -0.568292
O       1.93565      7.90542     10.66344        -0.621254     -1.407908      0.386692
O      13.67915      7.88360     10.86209         0.265993     -0.716046      0.425533
O       1.81692     11.66743      2.53908         0.301243      0.015737     -0.413028
O       2.00125     11.68770     14.86244        -0.226802      0.422870      0.806828
O      13.62232     11.60000      2.51362         0.020162      0.890445     -0.207406
O      13.70081     11.62814     15.06882        -0.257055      0.882198     -0.146211
O       1.99482     11.68872      6.71205        -0.173026     -0.019949     -0.179825
O      13.65079     11.72102      6.71691        -0.331377     -0.574160      0.295786
O       1.97406     11.77414     10.82582        -0.076624     -0.910822      0.301661
O      13.47638     11.71875     10.90967         0.250142     -0.073123      0.093861
O       5.75211      3.83056      2.45614         0.224737      0.896399      0.031639
O       5.85119      3.83802     15.14196         0.244498     -0.062577     -0.563698
O       5.92334     15.52124      2.54403        -0.133716     -0.215013     -0.513913
O       5.81227     15.55713     15.08477         0.075177     -0.097022     -0.528090
O       5.80731      3.87709      6.51607         0.129649     -0.000098      0.369445
O       6.01422     15.55318      6.52558        -0.657370     -0.147397      0.409385
O       5.73034      3.81706     10.95914         0.349996      0.581748     -0.278845
O       5.82854     15.48861     10.86501         0.263604      1.146109      0.089781
O       5.91586      7.80158      2.42639        -0.216452     -0.985923      0.074749
O       5.83866      7.75634     14.98292        -0.342254      0.429353      0.545579
O       5.86502      7.73001      6.67918         0.008379     -0.136249      0.077846
O       5.82930      7.77981     10.85563        -0.022689     -0.619661     -0.073667
O       5.93002     11.59126      2.77452        -0.118859      0.660632     -1.101062
O       5.81817     11.64233     14.92841        -0.014176      0.531764      0.101851
O       5.83243     11.59844      6.61646         0.141583      0.078465      0.041505
O       5.88866     11.68871     10.89665        -0.363525     -0.734168     -0.094474
O       9.80895      3.84123      2.64516         0.184935      0.691974     -0.650231
O       9.77711      3.83287     15.27429         0.033565     -0.424204     -0.793371
O       9.72421      0.07441      2.67045         0.154025     -0.893297      0.070379
O       9.74532     15.57104     15.05914        -0.099747     -0.264144     -0.567856
O       9.73553      3.97482      6.81009         0.278293     -1.350102      0.238543
O       9.73827      0.03257      6.67724         0.089901     -0.229670      0.138936
O       9.67481      3.86885     10.96853         0.478606     -0.052821     -0.409887
O       9.58113     15.58946     10.93830         0.691950     -0.138552     -0.489609
O       9.75557      7.78104      2.43784         0.134613     -0.426141      0.593205
O       9.83872      7.78193     14.95458        -0.221247     -0.152330     -0.155101
O       9.76619      7.78098      6.67537         0.168754      0.019193      0.297829
O       9.66522      7.67628     11.13350         0.469963      1.375721     -0.437171
O       9.86521     11.61429      2.33354        -0.034118      0.369339      0.366562
O       9.74717     11.72433     15.11081         0.045405     -0.185582     -0.496445
O       9.84420     11.72190      6.90719        -0.102978      0.002868     -0.356010
O       9.73472     11.62435     10.63842         0.235293      0.401887      0.270832
