  # total energy = -7882.71703110 
CRSYTAL
PRIMVEC
    15.6080000000000005    0.0000000000000000    0.0000000000000000
     0.0000000000000000   15.6080000000000005    0.0000000000000000
     0.0000000000000000    0.0000000000000000   16.6239999999999988
PRESSURE
-0.700625 -0.809769 -0.30114 0.152781 -0.259969 -0.083466
PRIMCOORD
320 1
Pb       3.78557      3.82263      4.12814         0.344211     -0.289291     -0.112186
Pb       3.80599      3.79970     16.50592         0.346319      0.607336      0.892654
Pb       3.90852     15.47566      4.17519         0.166390      0.283905     -0.294398
Pb       3.99835     15.60462     16.56643        -0.385252     -0.495751      0.716194
Pb       0.03169      3.94661      4.13249        -0.340912     -0.359571     -0.245141
Pb       0.03334      3.89335      0.00284        -0.569808      0.007390      0.033708
Pb       0.03717     15.52856      4.23792        -0.114593      0.053130     -0.653398
Pb      15.60616     15.60791     16.57846        -0.300134     -0.071770      0.035337
Pb       4.03324      3.93032      8.20385        -0.458767     -0.229957      0.729959
Pb       3.87911     15.41928      8.22554        -0.070155      0.834209      0.700784
Pb       0.01485      3.92331      8.29053        -0.382147     -0.124641     -0.481594
Pb      15.52024     15.53256      8.34525         0.101399      0.417462     -0.103308
Pb       3.89667      3.77935     12.40833        -0.320139      0.213591     -0.034389
Pb       3.97219      0.11820     12.49298        -0.543244     -0.188524     -0.324025
Pb      15.58127      4.01978     12.51924         0.276168     -0.563245      0.326855
Pb       0.03079     15.47934     12.36055         0.029356      0.981654      1.120028
Pb       3.96788      7.73652      4.01614        -0.486811      0.253414      0.477379
Pb       3.89850      7.83683      0.00598         0.441557     -0.142043     -0.340486
Pb      15.44701      7.73422      4.12051         0.233838      0.466539      0.055547
Pb      15.59417      7.73957     16.61175        -0.245370     -0.195132     -0.653682
Pb       3.78290      7.78910      8.30679        -0.121934      0.458590     -0.035091
Pb      15.60013      7.73428      8.24326        -0.081342      0.863636      0.111066
Pb       3.85267      7.74344     12.37265         0.193367      0.328629      0.354029
Pb      15.59483      7.74838     12.36906        -0.221324      0.171776      0.486364
Pb       3.91507     11.64072      4.18477        -0.085730      0.008939     -0.556917
Pb       3.85037     11.72328      0.06399         0.293561     -0.204408     -0.175693
Pb       0.00494     11.61732      4.14196         0.119449      0.000597     -0.259698
Pb      15.59353     11.57097     16.53913        -0.139496      0.316122      0.028257
Pb       3.92154     11.67134      8.43060        -0.575829      0.125956     -0.589035
Pb       0.07317     11.74813      8.29658        -0.176960     -0.590424      0.217287
Pb       3.78756     11.65753     12.48605         0.148238      0.032840     -0.015567
Pb      15.46682     11.83835     12.51493         0.012695     -0.546849     -0.168663
Pb       7.84518      3.95578      4.08874         0.138520     -0.448658      0.171287
Pb       7.82617      3.81818      0.02235        -0.246591      0.400374     -0.157986
Pb       7.88266      0.03253      4.21241        -0.459568      0.161151     -0.466166
Pb       7.78925     15.54151     16.52640         0.173548      0.365290      0.268516
Pb       7.91684      3.82544      8.20453        -0.715836     -0.063403      0.221563
Pb       7.71041      0.01888      8.17144         0.253801      0.078436      0.439895
Pb       7.85986      3.89492     12.54848        -0.558530      0.152040     -0.513670
Pb       7.76063     15.58280     12.33382        -0.171095      0.037677      0.057738
Pb       7.92031      7.77600      4.16733        -0.278543      0.094306     -0.160572
Pb       7.68298      7.58222      0.06480        -0.100647      0.129392     -0.320503
Pb       7.72912      7.72667      8.25522         0.292655      0.273878      0.398450
Pb       7.63678      7.95027     12.50203         0.261626     -0.529873     -0.613313
Pb       7.80792     11.63174      4.12356        -0.223747      0.156594      0.127125
Pb       7.83302     11.72043      0.00249        -0.373450     -0.268901     -0.290153
Pb       7.94548     11.63483      8.41555        -0.406573      0.256788     -0.203135
Pb       7.77439     11.83641     12.45993        -0.124630     -0.400803     -0.101785
Pb      11.62495      3.83308      3.99645         0.415983      0.160285      0.584037
Pb      11.63574      3.76735      0.04164        -0.075108      0.669303     -0.507910
Pb      11.79978     15.57893      4.13778        -0.021251      0.025274     -0.230686
Pb      11.76150     15.59581     16.54292        -0.149210      0.076116     -0.240207
Pb      11.66406      3.81516      8.25775         0.615097      0.138471     -0.328212
Pb      11.82378     15.56274      8.37854        -0.225430      0.355284     -0.602286
Pb      11.59804      3.93507     12.32610         0.253438     -0.140497      0.059480
Pb      11.54389      0.08685     12.49622         0.235979      0.137942     -0.325337
Pb      11.66935      8.06459      4.24301         0.187114     -0.339670      0.045363
Pb      11.80350      7.75477     16.59726        -0.439594     -0.073557     -0.359085
Pb      11.71158      7.66417      8.38883        -0.136791      0.226067     -0.457730
Pb      11.77860      7.80771     12.45437        -0.227598     -0.587016     -0.902916
Pb      11.76893     11.87014      4.07497        -0.205648     -0.414103      0.541781
Pb      11.51804     11.63563      0.02739         0.647761      0.091454     -0.549926
Pb      11.57284     11.66811      8.33147         0.104889     -0.226786     -0.105106
Pb      11.68507     11.56859     12.53155        -0.188744      0.508358     -0.516410
Ti       1.87637      1.86627      2.18345         0.446177     -0.531713      0.992206
Ti       1.88139      1.83405     14.77903        -1.135173      0.572615     -1.647940
Ti       1.97765     13.56445      2.26669        -0.191622     -0.182470     -0.833602
Ti       1.94523     13.58604     14.77350        -0.220887      0.467169     -0.485591
Ti      13.62864      1.95759      2.10158         0.360581     -0.015555      0.561339
Ti      13.56481      2.06899     14.68168         0.752828     -0.934265      0.480212
Ti      13.70034     13.60819      2.16881         0.071689      0.698658      0.534443
Ti      13.60142     13.69145     14.69081         0.116191      0.136080      0.192923
Ti       1.92340      1.97904      6.43062        -0.523532     -0.025804     -0.695213
Ti       1.88664     13.76338      6.41835         0.488511     -1.246794      0.040172
Ti      13.69090      1.95724      6.25087        -1.025230      0.346733      0.022955
Ti      13.63012     13.62324      6.43183        -0.066196      0.270759     -0.729565
Ti       1.85675      1.99980     10.44219         0.782795     -0.458038     -0.501250
Ti       1.89372     13.67955     10.61257         0.232160      0.248673     -1.027102
Ti      13.70851      1.88975     10.61937        -0.666839      0.835011      0.143206
Ti      13.59938     13.70225     10.57548        -0.330598     -1.439650      0.145812
Ti       1.92141      5.75716      2.19471         0.338534      1.067614     -0.319642
Ti       1.96964      5.82521     14.73771        -0.948697     -0.921970     -0.227391
Ti      13.64659      5.89259      2.10097        -0.724544     -0.762380     -0.481763
Ti      13.59072      5.88656     14.62543         0.247814     -0.366334      1.369268
Ti       2.00291      5.88399      6.33961        -1.831610      0.540178     -0.408627
Ti      13.64078      5.92127      6.30711        -0.834962     -0.802077      0.894476
Ti       1.91763      5.82209     10.50049         0.778068     -0.324591     -0.059435
Ti      13.69750      5.71371     10.47213        -1.409455      1.238090      0.206048
Ti       1.94566      9.60950      2.17033        -0.206289      1.254026      0.911408
Ti       1.94736      9.69789     14.66013         0.183388      0.331212      0.234484
Ti      13.57258      9.80649      2.10940         1.093631     -0.403931     -0.215573
Ti      13.62979      9.80152     14.54544        -0.289806     -0.106900      1.611002
Ti       1.88394      9.80833      6.28648        -0.333437     -0.277816      0.862936
Ti      13.58011      9.79904      6.46173         0.147286     -0.192880     -0.442010
Ti       1.80971      9.76570     10.62401         0.812668     -0.245069     -0.915331
Ti      13.59769      9.72088     10.47406        -0.015398      0.384551      0.043091
Ti       5.81587      1.92591      2.27090        -0.031647     -0.534836      0.067159
Ti       5.73792      1.98499     14.70710         1.111703      0.613391     -1.223905
Ti       5.89249     13.63636      2.17746        -0.885377      0.363303     -0.038919
Ti       5.87742     13.70423     14.64961        -0.340637     -0.844302      0.223686
Ti       5.78259      1.96760      6.38400         0.108730     -0.581152     -0.970728
Ti       5.89723     13.63095      6.41728        -0.661693      0.021356      0.431477
Ti       5.81558      1.95742     10.49745        -0.467510     -0.016927     -0.166779
Ti       5.75861     13.61330     10.51550         0.178986      0.382881      0.170874
Ti       5.87404      5.74062      2.32960        -0.023664      0.377148     -2.482765
Ti       5.76452      5.87627     14.56567         0.548772      0.206829      1.169845
Ti       5.85986      5.90619      6.43456        -0.280238     -0.167576     -0.495890
Ti       5.84433      5.80665     10.57368         0.842116     -0.008964     -0.854789
Ti       5.82664      9.67030      2.16583        -0.522764      0.903151     -0.129184
Ti       5.89286      9.80978     14.69998        -0.531676     -0.311012      1.809133
Ti       5.70154      9.82801      6.45709         0.861957      0.114517     -0.954165
Ti       5.76652      9.72345     10.46760         0.131551      0.031416      1.006235
Ti       9.72114      1.92049      2.16208        -0.243914     -0.094800      0.580437
Ti       9.63862      1.97631     14.61744         1.046564      0.077045      1.571981
Ti       9.68940     13.70350      2.13427         0.514340     -0.373839      1.190781
Ti       9.71202     13.62461     14.64991         0.600114      0.233195      0.488735
Ti       9.77669      1.88287      6.26278         0.520644     -0.026411     -0.138308
Ti       9.75401     13.67733      6.36446         0.170848     -0.433258      0.047739
Ti       9.62393      1.96733     10.40687         1.233848     -0.344483      0.202510
Ti       9.74791     13.68032     10.53150         0.145111     -0.225786      0.131529
Ti       9.84689      5.88797      2.22614        -0.285980     -0.172998      0.202290
Ti       9.64982      5.92798     14.54364         0.672567     -0.884170      1.012414
Ti       9.69273      5.79281      6.36343         1.662828      0.641522     -0.400162
Ti       9.69929      5.79008     10.39657         0.028900      1.703798      0.626069
Ti       9.71181      9.83614      2.26973         0.044053     -0.549879      0.550618
Ti       9.71392      9.64310     14.67859         0.017596      0.758913      1.360585
Ti       9.61113      9.72475      6.40050         1.373584     -0.069214     -0.063209
Ti       9.66112      9.75588     10.61596         0.295099     -0.682171     -0.970778
O       1.92233      1.86555      0.44396         0.247503      0.143873     -1.160871
O       1.98419      1.83881     12.97656         0.012647      0.305686      0.266214
O       1.97953     13.44485      0.44459        -0.005204      0.235173     -0.187860
O       1.98636     13.62791     12.97847        -0.515771      0.224060     -0.293416
O      13.57384      1.88907      0.31508        -0.204109     -0.244548      0.542475
O      13.51268      1.99100     12.92534         0.042550      0.028473     -1.220581
O      13.56749     13.62913      0.43114         0.303393      0.046934     -0.684917
O      13.71307     13.69854     12.90860        -0.333644     -0.310528     -0.295956
O       1.82433      1.90923      4.60264         0.095288      0.497731      0.158210
O       1.85018     13.74510      4.65090         0.186648     -0.008517     -0.544562
O      13.51361      2.03876      4.45592         0.690667     -0.297084      0.234803
O      13.67019     13.69862      4.62429        -0.124127     -0.393333      0.348337
O       1.84162      2.09554      8.63806        -0.193620     -0.187836      0.574706
O       1.80956     13.76898      8.80921         0.206329     -0.732807     -0.060443
O      13.65344      1.87694      8.87948        -0.004574      0.022591     -0.567451
O      13.70054     13.81221      8.79778        -0.325942     -0.272633     -0.753779
O       1.97789      5.76940      0.43419        -0.220075      0.217872     -0.427448
O       1.98264      5.54321     12.94541        -0.244111      1.056023      0.404322
O      13.57697      5.88915      0.27657         0.199189      0.651050      1.476211
O      13.63443      5.84354     12.84271        -0.170364     -0.033141     -0.078853
O       1.67029      6.03228      4.55368         0.920528     -0.766800      0.168131
O      13.62933      5.81534      4.52703         0.363836      0.124125      0.216345
O       1.88369      5.88376      8.71825        -0.008890      0.001986      0.220763
O      13.70171      5.64909      8.70081        -0.204868      0.735442      0.178589
O       1.87244      9.82914      0.39189         0.207541     -0.180670     -0.278229
O       1.90825      9.61279     12.91932         0.329784      0.282416     -0.834271
O      13.50182      9.87572      0.31184         0.632483     -0.521693      0.843768
O      13.39789      9.87055     12.78635         0.311609     -0.648773     -0.533372
O       1.89912      9.75285      4.51128        -0.025114     -0.148550      0.425560
O      13.70235      9.83000      4.65113        -0.409843     -0.367265      0.149830
O       1.92734      9.76480      8.83173        -0.013611     -0.178536      0.454728
O      13.63536      9.72299      8.70880        -0.293244      0.062909     -0.169699
O       5.83898      2.06807      0.47458         0.065766     -0.598483     -0.467030
O       5.80218      1.91929     12.85625        -0.388561      0.046393      0.952809
O       5.92149     13.84952      0.40044        -0.110888     -0.377633      0.043459
O       5.83909     13.68086     12.86117         0.152993      0.027368      0.032662
O       5.76230      1.90356      4.58991        -0.084136      0.369425      0.601033
O       5.66204     13.63819      4.68435         0.586344     -0.246401     -1.145704
O       5.76582      1.96246      8.71786         0.134290      0.075054     -0.058980
O       5.64432     13.70873      8.73801         0.246507     -0.060819      0.527347
O       6.00586      5.84395      0.39937        -0.355181     -0.094672      1.866548
O       5.82113      5.83549     12.80611        -0.283931      0.037416     -0.426030
O       5.78670      5.79613      4.66861         0.011379      0.370675     -0.559717
O       5.97369      5.79474      8.72765        -0.519559      0.208179     -0.117819
O       5.79891      9.58531      0.37747         0.183550      0.176326      0.585369
O       5.77584      9.76166     12.97786         0.485005     -0.006266     -1.344916
O       5.72733      9.90591      4.63343         0.321162     -0.189759      0.629337
O       5.78607      9.79666      8.69869        -0.124151     -0.016143      0.411402
O       9.70015      2.00983      0.36975        -0.186630     -0.081475      0.312218
O       9.66511      2.06876     12.85614         0.138707     -0.323691     -0.540255
O       9.61637     13.50201      0.38050         0.316525      0.652832     -0.111347
O       9.66271     13.80731     12.89399         0.128644     -0.229721     -0.659470
O       9.75914      1.96303      4.42433        -0.212343     -0.373898      1.602336
O       9.71481     13.65461      4.58926        -0.050879     -0.112077      0.154980
O       9.66384      1.96045      8.63232        -0.204145     -0.060035      0.053634
O       9.88968     13.61151      8.76567        -0.296991     -0.034021     -0.182293
O       9.73583      5.91201      0.47379        -0.207739     -0.105224     -0.195690
O       9.82805      5.89139     12.78060        -0.527243     -0.087277      0.307384
O       9.85293      5.69850      4.57347        -0.416918      0.462335      0.202416
O       9.82896      5.83237      8.58196        -0.941244     -0.269123      0.599374
O       9.78730      9.84745      0.54448        -0.221505     -0.064042     -0.835136
O       9.65547      9.80400     12.94718         0.361747     -0.351657     -1.549116
O       9.68558      9.71543      4.57726        -0.117648      0.185506     -0.107275
O       9.65351     10.02325      8.81361         0.029480     -0.579102      0.059036
O       3.89331      2.06835      2.58064        -0.414942     -0.201866     -0.181076
O       3.83596      1.87526     15.04400         1.015158      0.238046     -0.203677
O       3.84508     13.65277      2.53368         0.818917     -0.085978      0.204645
O       4.03460     13.58980     15.02543        -1.300855      0.397351      0.121100
O      15.58469      1.98980      2.37156        -0.250661     -0.485712      0.488859
O      15.54234      1.82313     14.99056         0.615359      0.136083      0.195741
O       0.03740     13.57101      2.56517        -0.768077      0.509203     -0.079314
O      15.55596     13.76347     15.05274         0.559924     -0.773165     -0.195301
O       3.77647      1.95945      6.73654         1.019859      0.228083     -0.309870
O       3.78821     13.61281      6.78190        -0.002072      0.140911     -0.216573
O      15.49526      1.93976      6.66812         0.814727      0.366302     -0.104079
O      15.60015     13.53359      6.71612        -0.783742      0.863265      0.114620
O       3.78813      1.88937     10.78229         0.309780      0.505390      0.293349
O       3.76854     13.65855     10.94365         0.940741     -0.159141     -0.459550
O       0.02043      2.04149     10.90922        -1.251066     -0.496268     -0.001869
O      15.50109     13.64512     10.92588         1.263450     -0.368716      0.037299
O       3.97182      5.70812      2.54363        -0.635384      0.187845      0.192342
O       3.82724      5.74943     15.05321         0.400918      0.362453     -0.320189
O      15.55663      5.91619      2.41767         0.261702      0.068635      0.031444
O      15.56952      5.72994     15.10358         0.752784      1.099703     -0.490107
O       3.82353      5.97189      6.68278         1.106447     -0.305097      0.040754
O      15.54208      5.98603      6.73638         0.127294     -0.880606     -0.617117
O       3.94513      5.79169     10.71679        -1.656924     -0.091728      0.262218
O      15.54619      5.85758     10.90977         0.806857     -0.019312     -0.439225
O       3.92717      9.75603      2.56042        -0.628082     -0.038763     -0.247392
O       3.90469      9.74671     14.99138        -0.740730      0.243532      0.146059
O       0.02489      9.68369      2.45616        -0.294377     -0.127643     -0.076149
O      15.50036      9.80576     14.79720         1.074622     -0.162899      0.598759
O       3.83738      9.77783      6.71880        -0.192701      0.241887      0.054138
O      15.52263      9.74726      6.80972         0.558843      0.115940     -0.601276
O       3.86805      9.69316     10.93117         0.191096      0.332310     -0.275503
O      15.58210      9.57212     10.92948        -0.374068      0.516796     -0.222745
O       7.75849      1.84327      2.60684         0.478377      0.157555     -0.282095
O       7.82505      2.02863     14.88279        -1.300955     -0.127532      0.435507
O       7.76241     13.58516      2.44388         0.332621      0.431565      0.542952
O       7.78031     13.65104     14.93321         0.021080      0.211212      0.295769
O       7.70106      1.86456      6.60685         0.618929      0.192069      0.044147
O       7.77212     13.76076      6.76570         0.315942     -0.628810     -0.402320
O       7.71604      1.96079     10.77636         0.291529     -0.080411      0.110403
O       7.81172     13.67065     10.71883        -1.364077      0.375670      0.334863
O       7.82673      5.94569      2.60146        -0.321560     -0.315234      0.200765
O       7.70853      5.96213     14.80328         0.546992     -0.368444      0.049313
O       7.72909      5.84692      6.52935         0.687534     -0.063824      0.527603
O       7.76928      5.89377     10.80817         0.286881     -0.328872      0.179218
O       7.73064      9.68617      2.62859         0.641936      0.346200     -0.346504
O       7.84282      9.68548     15.05496        -0.750632      0.140730     -0.099931
O       7.80006      9.78763      6.78789        -0.899813      0.122676     -0.204139
O       7.73702      9.77284     10.90293        -0.942054      0.013817     -0.019550
O      11.62721      1.89871      2.44704         0.623187      0.303222     -0.364727
O      11.62984      2.02147     14.99817        -0.109555     -0.048635     -0.100454
O      11.70941     13.55810      2.53480        -0.338099      0.195509     -0.363539
O      11.65386     13.58335     14.98359         0.104318      0.401343     -0.088928
O      11.65280      1.85884      6.62310        -0.515720      0.074013      0.097442
O      11.71570     13.71112      6.71828        -0.541703     -0.233283     -0.056269
O      11.57460      1.99768     10.78364         0.425692     -0.304694      0.293485
O      11.71449     13.58627     10.89437        -0.344967      0.376435      0.089839
O      11.72917      5.68881      2.47199        -0.051940      0.571894     -0.246951
O      11.70924      5.87112     14.97581        -0.284368      0.134073     -0.383831
O      11.67490      5.85546      6.74874         0.176623     -0.101042     -0.372371
O      11.62718      5.85628     10.77298         0.352816      0.033479     -0.132824
O      11.74950      9.88528      2.52778        -1.301281     -0.318132      0.292343
O      11.65695      9.70103     15.05365        -0.266396      0.070422     -0.540520
O      11.56689      9.61461      6.68306         0.699262      0.535903      0.265004
O      11.59937      9.72325     10.71716         0.350164      0.541700      0.714545
O       1.89159      3.92833      2.49043        -0.038479     -0.778138      0.644639
O       1.84522      3.83378     15.13032         0.597849     -0.123603     -0.440610
O       2.03439     15.57798      2.44890        -0.633631      0.327703      0.370132
O       1.96548     15.55317     15.06901         0.223633     -0.430129      0.330089
O      13.68897      3.88739      2.24936        -0.232466     -0.039040      0.569738
O      13.78181      3.88817     15.09223        -0.920782      0.308795     -0.683450
O      13.57865     15.55282      2.58298         0.475539      0.287284     -0.562219
O      13.58311      0.01860     14.95065        -0.542834     -0.561400      0.327796
O       1.90624      3.99090      6.56972        -0.168995     -0.019094      0.034248
O       1.81385      0.08075      6.63633         0.084630     -1.034550      0.378141
O      13.53225      3.80395      6.73658         0.462575      0.683096     -0.433900
O      13.60356      0.01737      6.65965         0.372385     -0.361663      0.158642
O       1.75310      3.90082     10.81980         0.852470      0.345386     -0.125875
O       1.79173     15.59467     10.68981         0.020767      0.344630      0.666925
O      13.55242      3.91662     10.82017         0.411241     -0.811314      0.303062
O      13.71814     15.57980     10.80937        -0.479928      0.803885      0.606219
O       2.13932      7.72887      2.36441        -0.410969      0.395539      0.151542
O       1.91546      7.82029     15.06651        -0.188672     -0.964148     -0.146809
O      13.57310      7.82829      2.50562        -0.164912     -0.052082     -0.319547
O      13.73924      7.82435     14.87279        -0.447346     -0.236047      0.170868
O       1.91043      7.88590      6.69644         0.055260     -0.413562      0.217171
O      13.57425      7.81365      6.64216         0.082021     -0.549138      0.071431
O       1.98996      7.71973     10.97346        -0.482166     -0.465410     -0.521313
O      13.58327      7.81351     10.72812        -0.077531     -0.756721      0.612590
O       1.96592     11.66163      2.62397         0.000724     -0.090288     -0.149971
O       1.90522     11.69234     14.87680         0.073681     -0.190622      0.493260
O      13.69472     11.65989      2.50493         0.154557      0.526879      0.165375
O      13.61657     11.67038     14.87571        -0.020960      0.819076      0.019696
O       1.85227     11.70703      6.72519         0.354368     -0.282326     -0.203419
O      13.54631     11.71572      6.70916        -0.004497      0.091529      0.229843
O       1.89815     11.65111     10.88477        -0.203501      0.450060      0.205798
O      13.74844     11.64357     10.77171        -0.417129      0.567083      0.361948
O       5.93235      3.85844      2.54203         0.227189      0.751352      0.386861
O       5.78916      3.89325     14.90655        -0.009153     -0.150845      0.015127
O       5.79626     15.58842      2.60987        -0.071422     -0.054854     -0.128135
O       5.92280      0.10049     15.03716        -0.295813     -0.849680     -0.366952
O       5.85462      3.89366      6.72474        -0.436568      0.309971     -0.238428
O       5.77061     15.57595      6.65107        -0.259811      0.573771      0.426963
O       5.80013      3.88664     10.89937         0.077979     -0.632979     -0.237351
O       5.74440      0.00257     10.88397         0.331144     -0.261069     -0.337364
O       5.73155      7.81909      2.54636         0.632449     -0.995014      0.032653
O       5.74578      7.75990     14.97209         0.073052     -0.072138     -0.173013
O       5.87592      7.94064      6.78240        -0.364692     -1.578490     -0.408485
O       5.74719      7.77817     10.83053         0.427106      0.602352      0.012859
O       5.72625     11.72855      2.29725         0.522579     -0.266551      0.555395
O       5.91800     11.69773     15.11460        -0.003550      0.341711     -0.425988
O       5.83727     11.78020      6.78455        -0.218771     -0.993780      0.084125
O       5.79582     11.69492     10.80347        -0.233715      0.345435      0.011080
O       9.68558      3.85674      2.50329        -0.177381      0.169351     -0.322545
O       9.63262      4.01798     15.05663         0.270014     -0.370852     -0.641527
O       9.79636     15.55681      2.52618        -0.491413     -0.080684     -0.368305
O       9.73460      0.00075     15.04117         0.047018      0.280324     -0.462774
O       9.70704      3.81757      6.64852        -0.173020      0.260742     -0.207009
O       9.67812     15.56228      6.62975        -0.012795      0.722726      0.009925
O       9.64524      3.92875     10.73401        -0.137109     -0.477286      0.094698
O       9.71323      0.04719     10.78043         0.005306     -0.193229      0.246123
O       9.80687      7.78149      2.55637         0.132842      0.846240      0.358750
O       9.67417      7.78212     15.03514         0.512526     -0.180623     -0.301202
O       9.64510      7.75763      6.60571        -0.243653     -0.124215      0.158278
O       9.62403      7.82378     10.65922         0.250476      0.209320      0.388132
O       9.64642     11.75847      2.58432         0.266168     -0.870675     -0.057911
O       9.70232     11.72264     14.97910        -0.047898     -0.471653     -0.082099
O       9.70294     11.69515      6.72256         0.101949      0.541280     -0.253810
O       9.55217     11.78199     10.96937         0.973795     -0.331518     -0.229611
