  # total energy = -7883.39306005 
CRSYTAL
PRIMVEC
    15.6080000000000005    0.0000000000000000    0.0000000000000000
     0.0000000000000000   15.6080000000000005    0.0000000000000000
     0.0000000000000000    0.0000000000000000   16.6239999999999988
PRESSURE
-0.652138 -0.670372 -0.60085 -0.273593 0.405195 0.011655
PRIMCOORD
320 1
Pb       3.91177      3.79840      4.10878         0.015604      0.363951      0.654248
Pb       3.82599      3.81903      0.05201         0.149697      0.497065     -0.488948
Pb       3.91342     15.56604      4.16911         0.036805      0.128701      0.388597
Pb       3.85630     15.52587      0.01835         0.480949      0.092126     -0.130431
Pb      15.46131      3.83516      4.11063         1.022122      0.110391      0.580757
Pb      15.56539      3.86905     16.56087         0.212888      0.052397      0.251736
Pb       0.06926     15.60050      4.13377         0.137504     -0.243688     -0.183507
Pb       0.07965     15.58157      0.00321        -0.772895     -0.385617     -0.001855
Pb       3.93284      3.93474      8.33508        -0.084219      0.110175     -0.436933
Pb       3.95260      0.16071      8.41370        -0.011030     -0.331468     -0.286578
Pb      15.58958      3.91943      8.23094         0.619895      0.166755     -0.020914
Pb       0.08826      0.02596      8.27585        -0.200451      0.126253      0.160436
Pb       3.76854      4.00955     12.52210         0.740219     -0.222847     -0.465704
Pb       3.81829     15.47717     12.39629         0.081383      0.666777      0.253623
Pb      15.55532      3.79670     12.31906         0.145048      0.401717      0.043038
Pb      15.58779     15.59434     12.42343         0.106072     -0.177512      0.252306
Pb       3.77499      7.81057      4.11200         0.123318     -0.085658      0.303389
Pb       3.77002      7.74851     16.56259         0.616315     -0.266700      0.105637
Pb      15.59731      7.86468      4.01666         0.040145     -0.167026      0.608239
Pb      15.59885      7.79800     16.60308        -0.069008     -0.105488      0.409425
Pb       3.99948      7.81355      8.28729        -0.083888     -0.447950     -0.430696
Pb      15.54453      7.81585      8.35933         0.424440     -0.205055     -0.749732
Pb       3.81730      7.85559     12.54691         0.190469     -0.156504     -0.124940
Pb      15.51751      7.74829     12.44467         0.161241     -0.070214      0.136349
Pb       3.93697     11.71449      4.16087        -0.197748     -0.663121      0.438639
Pb       3.87144     11.67699     16.51725         0.307659     -0.065770      0.097112
Pb       0.01184     11.81947      4.12737         0.341257     -0.357753      0.399678
Pb       0.06055     11.79788      0.08996        -0.525980     -0.431723     -0.721543
Pb       3.87450     11.70647      8.28509        -0.067957      0.296180      0.033555
Pb      15.44558     11.70577      8.23915         0.375183     -0.025976      0.223325
Pb       3.78422     11.82430     12.48349         0.090244     -0.335480     -0.009020
Pb      15.54654     11.54053     12.37756        -0.037154      0.205165      0.522885
Pb       7.71855      3.84363      4.09135         0.273583      0.144455      0.416096
Pb       7.60544      3.71221     16.59585         0.745647      0.493751     -0.127096
Pb       7.69655     15.57282      4.07425         0.730990     -0.228040      0.524376
Pb       7.75986     15.48744      0.03125         0.772816      0.175574     -0.284647
Pb       7.76407      3.90834      8.37536        -0.512684      0.029893     -0.751928
Pb       7.84684     15.53573      8.44153        -0.654300     -0.028738     -0.388611
Pb       7.78976      3.94973     12.50661        -0.739916      0.175781     -0.250403
Pb       7.89669      0.08823     12.52185        -0.187481      0.011115     -0.071678
Pb       7.64891      7.79262      3.97923         0.904417      0.061102      0.300461
Pb       7.83766      7.83872     16.53239         0.069280      0.184032      0.107045
Pb       7.89173      7.83392      8.39651        -0.265913     -0.092092     -0.543073
Pb       7.89146      7.72964     12.52853        -0.313766      0.174139     -0.025752
Pb       7.75040     11.78135      4.04894         0.151828     -0.193054     -0.262664
Pb       7.78034     11.58107     16.57361         0.449800     -0.254626      0.087796
Pb       7.63525     11.66146      8.31703         0.359196      0.409753      0.496898
Pb       7.76346     11.61402     12.49744         0.121845     -0.005392      0.199307
Pb      11.71930      3.99548      4.25447        -0.332589     -0.178889     -0.473995
Pb      11.77152      3.89934     16.58259        -0.800082      0.204600      0.006088
Pb      11.73562      0.18178      4.21281        -0.422949     -0.564021     -0.393271
Pb      11.67608     15.56358     16.61858        -0.213505     -0.137582     -0.271981
Pb      11.64116      3.90915      8.28789         0.195619     -0.207853     -0.149660
Pb      11.49096     15.48844      8.20660         1.136690     -0.140222      1.153273
Pb      11.66859      3.80622     12.43930         0.211944      0.401335      0.133787
Pb      11.77753     15.50068     12.40628        -0.210441     -0.022757      0.239709
Pb      11.76328      7.67038      3.99420        -0.464264      0.450522     -0.033660
Pb      11.65282      7.74842     16.59699        -0.070056      0.266178      0.171102
Pb      11.66824      7.84184      8.10420         0.112414      0.480248      0.107117
Pb      11.66648      7.74870     12.50556        -0.047419      0.101981     -0.024262
Pb      11.62813     11.77745      4.30166        -0.005837     -0.038286     -0.336784
Pb      11.89000     11.76770     16.58909        -0.340256     -0.355875      0.304124
Pb      11.72001     11.69748      8.27504        -0.209729     -0.380024      0.062527
Pb      11.57824     11.63766     12.33081         0.430343     -0.025743      0.600857
Ti       1.98890      1.97230      2.23841         0.107086     -0.666188      1.038163
Ti       1.89618      1.89407     14.78630         0.246641     -0.010743     -1.121969
Ti       2.10672     13.57060      2.20921        -1.141466      0.762787      0.907960
Ti       1.97191     13.65680     14.66284        -0.537763     -1.546575     -0.239461
Ti      13.66232      1.90599      2.22612         0.011350     -0.095580     -0.454618
Ti      13.52856      1.95904     14.69470         1.045133     -0.908351      0.973785
Ti      13.71721     13.69162      2.26008        -0.375011     -0.348413     -0.669808
Ti      13.67441     13.67051     14.60718         0.539409     -0.350499      0.228129
Ti       1.90033      1.93398      6.33893         0.825686      0.544771      0.310691
Ti       1.98740     13.64694      6.41355         0.103536     -0.394803      0.379720
Ti      13.57384      1.93280      6.35281         0.860336      0.265698      0.552318
Ti      13.65825     13.73850      6.34207         0.151630     -0.530799      0.213431
Ti       1.95762      1.87973     10.57034         0.707282      0.966998     -0.726254
Ti       1.83185     13.56327     10.48871         1.247142      0.456877     -0.138365
Ti      13.66166      1.86478     10.42534        -0.249869      0.302581     -1.169549
Ti      13.68410     13.58989     10.53432        -1.052162     -0.234301     -1.125789
Ti       1.93498      5.81483      2.19892        -0.003938     -0.267907     -0.360027
Ti       1.90993      5.75602     14.65855         1.281097      0.812501      1.035034
Ti      13.67229      5.78129      2.18861        -0.033556      1.080423     -0.500048
Ti      13.69570      5.85061     14.77914        -0.504016      0.840940     -0.556005
Ti       2.00114      5.83209      6.30265         0.445338     -0.064855     -0.179401
Ti      13.71177      5.80528      6.25932         0.673755      0.506644     -0.137970
Ti       1.92764      5.85574     10.50623        -0.145460     -0.786390     -1.393444
Ti      13.55993      5.80507     10.43566         1.346220     -0.090384      1.023109
Ti       1.87745      9.72770      2.22119         0.327467      0.677133      0.143536
Ti       1.92755      9.72386     14.74852        -0.743797     -0.012586     -0.219844
Ti      13.58684      9.86164      2.30199         0.405519     -0.455316     -1.464847
Ti      13.70816      9.76737     14.68442         0.087068     -0.454200      0.874121
Ti       1.95960      9.67316      6.42902        -0.274134      0.486033     -0.690829
Ti      13.67425      9.73678      6.30894        -0.416380     -0.110670      0.287110
Ti       1.90646      9.70697     10.50177        -0.669995     -0.074714     -0.362078
Ti      13.54309      9.67304     10.56707         0.238262      0.415091     -0.297563
Ti       5.84584      1.85721      2.24243         0.045699      0.447079      1.058016
Ti       5.80316      1.91803     14.64167         0.308133      0.226572     -0.930441
Ti       5.83410     13.64641      2.12683         0.736300     -1.161780     -0.136558
Ti       5.91839     13.65122     14.64210        -0.489236     -0.348245      0.509232
Ti       5.82204      1.87785      6.44458         0.244504      1.083649      0.437973
Ti       5.83345     13.66978      6.47730         0.133799      0.476405      0.056672
Ti       5.87304      2.03898     10.56268        -0.560217      0.123001      0.202947
Ti       5.86892     13.71451     10.68634         0.050313     -0.677427     -1.955621
Ti       5.81097      5.76523      2.14068         0.485895      0.261619      0.374703
Ti       5.88971      5.84200     14.68533        -0.507484     -0.248819     -0.968194
Ti       5.99310      5.91924      6.35018        -0.638705     -1.017677      0.724597
Ti       5.81978      5.95039     10.40082        -0.330607     -0.901588      1.141356
Ti       5.78087      9.70675      2.19571         0.579370      0.597446     -1.404928
Ti       5.82292      9.71563     14.75897         0.929628     -0.353868     -0.241436
Ti       5.85397      9.78072      6.38559        -0.097192     -0.869901     -1.065344
Ti       5.76368      9.81431     10.65928         0.183269     -0.482595     -0.720697
Ti       9.77303      1.95115      2.28562        -0.545510     -0.487257     -1.422772
Ti       9.68955      1.95500     14.63101        -0.092289     -0.696986      1.203937
Ti       9.83497     13.65232      2.20988        -0.611451      0.315084     -1.208093
Ti       9.79899     13.60087     14.67449        -0.030507      0.222337      0.702008
Ti       9.73054      1.90338      6.46562        -1.520554      0.438763     -0.502522
Ti       9.72073     13.55376      6.41555        -0.881427     -0.249883     -0.418799
Ti       9.75435      1.97286     10.52064        -0.109932     -0.729223      0.431398
Ti       9.70471     13.59397     10.65626         0.276060      0.301115     -0.724244
Ti       9.71535      5.80028      2.14940        -0.135433      0.493165     -0.246158
Ti       9.74760      5.82086     14.68510        -0.131588      0.179714      0.013844
Ti       9.86509      5.79476      6.37391        -1.972697      0.482397      0.821199
Ti       9.72911      5.83286     10.49265        -0.340834      0.478107      0.224201
Ti       9.80472      9.84855      2.19346        -0.931993     -1.123692     -1.571099
Ti       9.91038      9.75431     14.67457        -1.289746     -0.289081     -0.255132
Ti       9.63584      9.71827      6.26749         1.146484      0.456871      0.490233
Ti       9.61422      9.72857     10.48774         0.788923     -0.064006      1.300049
O       2.01493      1.95320      0.47614        -0.200842     -0.161080     -0.806696
O       1.86854      1.72164     12.98182         0.034898      0.454054      0.711616
O       2.18480     13.61540      0.45669        -0.531030     -0.363616     -0.395074
O       1.94588     13.67352     12.88478         0.017893      0.043768     -0.609301
O      13.67957      1.87573      0.43783        -0.222105      0.237821      0.296760
O      13.65849      1.98113     12.96737         0.259128     -0.036971     -0.923977
O      13.61135     13.64917      0.42325         0.181507     -0.024871      0.976100
O      13.63134     13.62659     12.81505         0.392433      0.129855      0.252330
O       2.06037      1.97203      4.56519        -0.254542     -0.408536     -0.182442
O       1.92940     13.53812      4.63177         0.012705      0.801172     -0.096546
O      13.59049      1.96766      4.55153         0.116875     -0.084235     -0.509925
O      13.77407     13.61740      4.52717        -0.257935      0.213714      0.839944
O       1.89110      1.97149      8.76471         0.065965     -0.395160      0.442213
O       1.97517     13.64103      8.72344        -0.106061     -0.107484      0.162005
O      13.64333      1.79089      8.57496        -0.017103      0.661927      1.604690
O      13.59203     13.59794      8.71351        -0.035097      0.237075      0.601013
O       1.92544      5.70370      0.37507         0.224361      0.132772      0.767661
O       2.12368      5.76800     12.91419        -0.535157      0.057846     -1.048299
O      13.70713      5.86172      0.36866        -0.071894     -0.574770      0.762109
O      13.72223      5.93231     13.03108        -0.313707     -0.537079     -0.825502
O       2.07074      6.00269      4.45168        -0.093482     -0.335536      0.849344
O      13.54960      5.77605      4.43853         0.230572      0.049732      0.144695
O       1.84595      5.70310      8.64085         0.075095      0.625393      1.481313
O      13.74072      5.73842      8.68780        -0.443646      0.354387     -0.523321
O       1.87650      9.66824      0.44590         0.275121      0.441956     -0.201038
O       1.74870      9.50771     13.00275         0.497629      0.782474     -0.436422
O      13.68722      9.90513      0.48907        -0.166061     -0.212303      0.551794
O      13.70208      9.71809     12.92199         0.232424      0.019250     -0.705993
O       2.00095      9.58393      4.60945         0.003922      0.123675      0.293383
O      13.66918      9.74757      4.54329        -0.286992      0.269938     -0.032344
O       1.86241      9.75261      8.71343         0.263471     -0.320795      0.185207
O      13.46553      9.70842      8.78225         0.633677     -0.496719     -0.139756
O       5.94721      1.91823      0.52544        -0.022144      0.128344     -1.912676
O       5.92196      2.06410     12.87093        -0.119580     -0.454953     -0.092641
O       5.73042     13.65802      0.35162         0.050764     -0.105836      0.151789
O       5.92676     13.55802     12.86515        -0.230520     -0.061811     -0.283823
O       5.74281      1.87456      4.66692         0.153496     -0.186705     -0.879671
O       5.84812     13.77145      4.68349         0.184992     -0.480661     -0.401680
O       5.81703      1.91104      8.76906         0.011020     -0.339329      0.111845
O       5.93829     13.53895      8.79035        -0.461929      0.329531      0.924028
O       5.97307      5.71267      0.38153        -0.216219     -0.176198      0.595937
O       5.87201      5.77752     12.85696         0.027387      0.182699      0.206332
O       5.88114      5.84737      4.58229         0.075441      0.007921     -0.581173
O       5.85088      5.96762      8.61805         0.058389     -0.143125      0.380921
O       5.83907      9.68264      0.35646        -0.056856      0.269012      0.836623
O       5.74780      9.57377     12.97548         0.237983      0.437458     -1.121491
O       5.81469      9.69338      4.58330         0.385224      0.321717     -0.132099
O       5.93748      9.80251      8.84935        -0.922473     -0.232401     -0.050730
O       9.66404      1.75562      0.46877         0.240017      0.357749      0.665782
O       9.64189      2.00462     12.87934         0.369131      0.005769     -0.703634
O       9.74923     13.66057      0.36302         0.543839      0.304031      0.635376
O       9.79497     13.57033     12.90429        -0.116912     -0.266501     -0.523012
O       9.71817      1.92622      4.69252         0.338559     -0.172848     -0.332703
O       9.69213     13.66871      4.63078        -0.008002     -0.553668     -0.077933
O       9.74554      1.78731      8.74820         0.236254      0.291826     -0.181770
O       9.79503     13.60970      8.86246        -0.052369      0.496055     -0.297587
O       9.80464      5.83380      0.36960        -0.251878     -0.227763     -0.048697
O       9.83276      5.81959     12.86897        -0.295369     -0.127155     -0.139744
O       9.88674      5.67861      4.64348        -0.082121      0.149842     -0.894767
O       9.75160      5.93091      8.72189         0.445785     -0.335668     -0.025344
O       9.86955      9.71567      0.31367        -0.215342     -0.081869      0.975364
O       9.81292      9.76189     12.83579        -0.328415     -0.188300      0.154544
O       9.73563      9.83168      4.51798        -0.023380      0.022093     -0.761472
O       9.68170      9.79428      8.76650         0.098760     -0.577128     -1.094041
O       3.94319      2.01044      2.51897        -0.316184     -0.332683     -0.014556
O       3.96949      1.97112     15.07471        -1.318259     -0.053643      0.010049
O       3.93461     13.43417      2.64678         0.896195      0.803352     -0.506275
O       3.83087     13.46512     14.94111         1.065666      0.005399     -0.286679
O       0.05840      1.85338      2.58778        -0.165203     -0.193688     -0.145305
O       0.00004      1.81007     15.17644         0.348478      0.345302     -0.621799
O       0.05855     13.77504      2.43634         0.240281     -0.127702      0.211768
O       0.01171     13.55566     14.95685        -0.355469      0.948186      0.533284
O       3.85094      1.89599      6.76042         0.018396     -0.052789      0.098132
O       3.87927     13.68477      6.75490         0.210178     -0.075665     -0.028772
O      15.58568      1.93864      6.62892        -0.097846     -0.085694     -0.211274
O      15.53500     13.74782      6.86777         0.186839     -0.659036     -1.027297
O       3.92944      1.99640     10.88690        -0.558281     -0.784216     -0.110709
O       3.91417     13.57458     10.92709        -0.342180      0.086136     -0.142633
O      15.60125      1.73666     10.85077        -0.278816      0.877405     -0.071423
O      15.60448     13.68228     10.71768        -0.316312      0.172182      0.370668
O       3.89307      5.75791      2.36482         0.650851      0.285310      0.161731
O       4.00805      5.72124     14.99294        -1.048009     -0.209710      0.390586
O       0.05805      5.94477      2.47220        -0.740052     -0.391748      0.165383
O       0.09414      5.87534     14.92266        -1.215501     -0.379625      0.292052
O       3.91888      5.81944      6.69894        -0.219814      0.595535     -0.146382
O      15.59417      5.80193      6.51104        -0.291098     -0.167500      0.159179
O       3.87437      5.62183     10.76475         0.127710      0.886389     -0.213242
O       0.03221      5.86504     10.77777        -0.542300     -0.206963      0.430303
O       3.91963      9.92034      2.44087        -0.059135     -0.702143      0.229846
O       3.86105      9.78228     14.96620        -0.109799     -0.194217      0.301272
O      15.58362      9.77665      2.60342         0.544858     -0.069062     -0.215944
O       0.04014      9.52905     15.16800        -0.628813      0.940033     -0.795573
O       3.89198      9.67379      6.64938         0.213605     -0.088806      0.609230
O      15.60056      9.79574      6.67424        -0.484277     -0.358487      0.131207
O       3.73332      9.79678     10.96815         1.323211     -0.110724     -0.213074
O      15.55511      9.75449     10.88665         0.162100     -0.831417     -0.404447
O       7.80841      1.85675      2.63311        -0.264175      0.037646     -0.072986
O       7.73914      1.72400     14.92279         0.590621      0.257862      0.442860
O       7.83692     13.63085      2.32509        -0.815377      0.300932      0.851279
O       7.80674     13.69210     14.98865        -0.028128     -0.262848     -0.121144
O       7.71907      1.84448      6.70851         1.538278      0.317202      0.292600
O       7.73720     13.46893      6.79680         0.558484      0.824697     -0.404163
O       7.85357      1.90926     10.84970        -0.043726     -0.171407     -0.096033
O       7.81580     13.53840     10.89944         0.039517      0.553774      0.251821
O       7.80387      5.79722      2.54137        -0.476389     -0.221958     -0.023240
O       7.84188      5.85142     14.91299         0.330550     -0.065269      0.104946
O       7.87985      5.73794      6.74758        -0.343271      0.440816     -0.348818
O       7.78492      5.86626     10.78500         0.113085      0.023128     -0.037605
O       7.89939      9.70110      2.34300        -0.836696      0.095647      0.727906
O       7.79821      9.65457     14.91430        -0.238399      0.135002      0.346091
O       7.80081      9.69147      6.64932        -0.981867      0.526771      0.145874
O       7.73011      9.54755     10.81340        -0.101770      0.708283      0.617948
O      11.71102      1.96836      2.48697         0.420545     -0.040575      0.301032
O      11.68161      1.96933     14.91541        -0.247284     -0.155760      0.380365
O      11.68473     13.53353      2.56004         1.000011      0.424865      0.094131
O      11.78504     13.53834     14.98321        -0.824926      0.142300     -0.176351
O      11.65606      1.95521      6.65942         0.041740     -0.228194      0.152051
O      11.68351     13.50035      6.61841         0.305617      0.730071     -0.056983
O      11.74152      2.08233     10.85986        -0.091470     -0.556444     -0.361607
O      11.76940     13.58881     10.88679        -0.550347      0.120839     -0.048676
O      11.71884      5.71587      2.40089         0.716548     -0.162035      0.357125
O      11.66992      5.84133     15.03330         0.508619     -0.334181      0.053475
O      11.74636      5.79896      6.61194         0.008384      0.034745      0.535414
O      11.72727      5.74881     10.86593        -0.178067     -0.050045     -0.435984
O      11.68089      9.79440      2.46136         1.042151      0.052634      0.743145
O      11.75708      9.71082     14.87511         0.569792     -0.018953      0.314399
O      11.64084      9.74534      6.65322         0.481828     -0.228974     -0.087938
O      11.68247      9.78240     10.90291        -0.169234     -0.521234     -0.357439
O       1.93197      3.85589      2.54623        -0.108681      0.444991     -0.121490
O       1.89987      3.81607     15.01705         0.139414     -0.472598     -0.154932
O       2.26728     15.54925      2.53036        -1.049421      0.105447     -0.171647
O       2.04397     15.45474     15.17238        -0.458904      1.955313     -0.356996
O      13.87814      3.87634      2.48478        -0.788550     -0.072945     -0.550073
O      13.63197      3.90038     14.98107         0.383774     -0.467852      0.440654
O      13.66007      0.01071      2.58467        -0.242789      0.012195      0.081046
O      13.59815     15.55545     15.00624         0.183236      0.265305     -0.236644
O       1.97685      3.92935      6.60157        -0.339448     -0.628809     -0.081081
O       1.92753     15.59665      6.65021        -0.183506      0.205786      0.028753
O      13.62886      3.87943      6.44768        -0.172283      0.011354      0.789182
O      13.57568      0.01467      6.51108        -0.150771     -0.737507      0.034425
O       1.95302      3.84025     10.82121        -0.852160     -0.286298      0.646954
O       1.96720     15.55583     10.85596         0.179572     -0.182364     -0.163223
O      13.82310      3.85418     10.76165        -0.466552     -0.006375      0.028406
O      13.60384      0.02872     10.87568         0.006863     -0.452752     -0.225736
O       1.97769      7.86129      2.46173         0.323117     -0.809473     -0.067675
O       2.06624      7.68417     15.02907        -0.093736      0.188656     -0.026166
O      13.61711      7.83811      2.49672         0.010695     -0.629032      0.001413
O      13.64586      7.78237     15.04940         0.032538     -0.004321      0.209687
O       1.85727      7.75695      6.73147         0.187202      0.186235      0.194547
O      13.68330      7.74578      6.54837        -0.240714      0.312399      0.516114
O       1.91918      7.76428     10.87332         0.326555     -0.109579     -0.508204
O      13.62889      7.73136     10.93400        -0.162359      0.013512     -0.749621
O       1.96029     11.69519      2.66891        -0.439495     -0.143315     -0.651324
O       1.78785     11.68296     14.97824         0.582484     -0.833726      0.208923
O      13.82906     11.78879      2.57113        -0.674568     -0.378033     -0.113273
O      13.75121     11.63624     15.00730         0.068961      0.474186     -0.071467
O       2.00814     11.70186      6.61585        -0.272718     -0.233752      0.490586
O      13.62091     11.64579      6.74359         0.130462      0.334723     -0.568464
O       1.84868     11.65764     10.82037         0.176388      0.427317      0.288479
O      13.74374     11.64629     10.75224        -0.244390      0.489926      0.310547
O       5.83533      3.76149      2.61165         0.490353      1.532408     -0.424740
O       5.99938      3.88032     14.89892        -0.053426     -1.036302      0.651603
O       5.80796     15.53147      2.40476        -0.172985      0.034043      0.635375
O       5.65559     15.50090     14.87029         0.426101      0.522986      0.280322
O       5.86664      3.87062      6.79318         0.032843      0.058402     -0.207454
O       5.89855     15.59410      6.80522        -0.388098     -0.756623      0.159700
O       5.87335      3.88897     10.62130         0.560625      0.328380      0.440125
O       5.85397     15.56430     10.84489         0.066416      0.275004      0.219641
O       5.95940      7.80472      2.43422        -0.933443     -0.741257     -0.093830
O       5.82671      7.72330     15.04522        -0.148847      0.462378      0.038373
O       5.89036      7.80130      6.64091        -0.055419      0.251203      0.352750
O       5.66789      7.76756     10.74028        -0.135400      0.379819      0.313188
O       5.99797     11.69922      2.45904        -0.338330     -0.103007      0.279850
O       5.94868     11.65192     15.01225        -0.426059      0.234955     -0.191599
O       5.76190     11.66555      6.67382         0.017962     -0.070906      0.093510
O       5.84129     11.70341     10.84293         0.005096     -1.209545      0.765768
O       9.68227      3.85263      2.50927         0.209348     -0.469292      0.144579
O       9.73527      3.81492     14.94183        -0.158495      0.227700      0.235786
O       9.79317     15.54250      2.65121         0.184143      0.550593     -0.191129
O       9.79177     15.52126     14.90540         0.323446      0.294496      0.057368
O       9.75823      3.86643      6.81412         0.274921     -0.337138      0.015372
O       9.69852     15.49485      6.83860        -0.136213      0.552319     -0.778230
O       9.71344      3.87782     10.72068         0.255359      0.104734      0.137657
O       9.81893     15.56050     11.02799        -0.160688      0.474288     -0.634432
O       9.81522      7.67817      2.46303         0.186643      0.329907      0.391308
O       9.72200      7.79077     14.90406         0.495705     -0.596670      0.112440
O       9.65588      7.82997      6.66665         0.717771     -0.913265     -0.011382
O       9.70916      7.76586     10.81501         0.575374     -0.144129      0.108764
O       9.79254     11.69035      2.36756        -0.296689      0.521230      0.838158
O       9.71311     11.58111     14.93436         0.012912      1.711679      0.097195
O       9.71574     11.68755      6.66907         0.114703     -0.401017     -0.042902
O       9.69575     11.67715     10.75160         0.064447     -0.590525      0.831867
