  # total energy = -7879.64071484 
CRSYTAL
PRIMVEC
    15.6080000000000005    0.0000000000000000    0.0000000000000000
     0.0000000000000000   15.6080000000000005    0.0000000000000000
     0.0000000000000000    0.0000000000000000   16.6239999999999988
PRESSURE
-0.715298 -0.861951 -1.59046 0.254426 -0.424736 0.013378
PRIMCOORD
320 1
Pb       3.74331      3.83351      4.16757         0.152098      0.055805     -0.711893
Pb       3.74935      3.74252     16.53671         0.362566      0.395974      0.142025
Pb       3.92524     15.44851      4.28675        -0.166900     -0.158442     -0.505459
Pb       4.01586      0.00733      0.03389        -0.300405     -0.020670     -0.591262
Pb       0.02068      3.92771      4.16876        -0.385003     -0.059806     -0.870926
Pb       0.00317      3.94129      0.01397         0.244106     -0.198439     -0.283124
Pb       0.06653     15.56759      4.30919         0.163097      0.015511     -0.333837
Pb      15.59809     15.58175      0.02005         0.215056      0.065828     -0.577833
Pb       4.06676      4.00586      8.27109        -0.353962      0.034005     -0.252791
Pb       3.88900     15.50289      8.38150        -0.249426      0.266253     -0.710626
Pb       0.07884      3.93480      8.27645        -0.107164      0.271718      0.163915
Pb      15.55067      0.00467      8.38925         0.357106     -0.352790     -0.596034
Pb       3.94011      3.80173     12.36173        -0.337820      0.456204     -0.123606
Pb       3.96402      0.15577     12.40560        -0.053489     -0.377749      0.319140
Pb      15.53653      3.92106     12.45624        -0.081219     -0.206613     -0.666410
Pb      15.55887     15.47685     12.29981        -0.171013      0.931201      0.470357
Pb       3.97409      7.67953      4.14983        -0.256246      0.280071     -0.459034
Pb       3.88318      7.85301      0.05322         0.091480     -0.105471     -0.186012
Pb      15.46962      7.71107      4.15099        -0.107211      0.325690     -0.206394
Pb      15.60285      7.77201      0.01312         0.057785     -0.333709      0.154906
Pb       3.84375      7.83196      8.29683         0.295170     -0.018856      0.205046
Pb       0.13005      7.83332      8.08816        -0.562559     -0.384410      0.676252
Pb       3.79136      7.77419     12.44278         0.254282     -0.103021     -0.776469
Pb       0.03779      7.74044     12.37481         0.124096     -0.444698      0.008805
Pb       3.96950     11.59142      4.27241         0.097110      0.542447     -0.113525
Pb       3.88801     11.67189      0.05001         0.017268      0.255599     -0.806592
Pb       0.06520     11.62688      4.21164        -0.724440      0.199775      0.026567
Pb       0.00453     11.55964     16.54471         0.215216      0.607810      0.255668
Pb       3.90989     11.55480      8.41236         0.163909     -0.063090     -0.532793
Pb       0.03880     11.73103      8.37128        -0.336703      0.232603     -0.306963
Pb       3.77649     11.69169     12.55956         0.323572     -0.081354      0.031374
Pb      15.37962     11.82297     12.50056         0.734617     -0.250273     -0.390607
Pb       7.88921      4.03428      4.12402        -0.448856     -0.200408     -0.416464
Pb       7.79049      3.76103      0.10406        -0.192609      0.203701     -0.290070
Pb       7.91606      0.05757      4.20936        -0.448278     -0.344555     -0.217391
Pb       7.80865     15.47472     16.55133        -0.084138      0.014343     -0.208055
Pb       7.91027      3.88877      8.13013         0.045511      0.270890     -0.094652
Pb       7.69965      0.01313      8.28238         0.234550     -0.207922     -0.050698
Pb       7.82016      4.00230     12.56457         0.123841     -0.006161     -0.569953
Pb       7.76164      0.00974     12.36802         0.226103     -0.113672     -0.045180
Pb       7.85410      7.77096      4.18062        -0.242921      0.150698     -0.413012
Pb       7.78304      7.57861      0.08840        -0.024392      0.497658     -0.342738
Pb       7.68637      7.74692      8.34177         0.601369      0.132821     -0.240440
Pb       7.64913      7.98726     12.56071         0.008768     -0.070972     -0.136405
Pb       7.78360     11.61320      4.15963        -0.202023      0.444054      0.003601
Pb       7.89356     11.61058      0.07013        -0.647596      0.189276     -1.087922
Pb       7.87262     11.59057      8.45779        -0.386165      0.024736     -0.218864
Pb       7.73618     11.83331     12.49338         0.064501     -0.190649      0.461370
Pb      11.56247      3.91710      3.92623         0.597267     -0.258052      0.656679
Pb      11.61110      3.68613     16.53966         0.329873      0.379860      0.410248
Pb      11.92068      0.07272      4.15976        -0.771522      0.023055      0.300807
Pb      11.79026     15.59543     16.60211        -0.324784     -0.046051      0.072308
Pb      11.68044      3.67620      8.14064        -0.227888      0.724768      0.546501
Pb      11.82806     15.47791      8.35137        -0.303269      0.114251     -0.473661
Pb      11.52752      3.95076     12.33323         1.171376      0.019948      0.048759
Pb      11.67955      0.08732     12.56913         0.127243     -0.417040     -0.424333
Pb      11.65334      8.09117      4.21283         0.097236     -0.381495     -0.463182
Pb      11.77604      7.74188     16.57378        -0.265836     -0.097086      0.465998
Pb      11.71280      7.69920      8.33498        -0.230447     -0.016015     -0.094062
Pb      11.86673      7.63534     12.41873        -0.415644      0.451028     -0.026931
Pb      11.63763     12.02214      4.08641         0.439302     -1.077152      0.044795
Pb      11.57555     11.69421      0.06769         0.377064      0.084780     -0.425186
Pb      11.51866     11.53453      8.19324         0.534730      0.774126      0.663388
Pb      11.68066     11.53737     12.54735        -0.524052      0.170235     -0.430576
Ti       1.89548      1.89000      2.18923        -0.287473      0.665976      0.340009
Ti       1.83957      1.89212     14.59199         0.176443      0.730374      0.238276
Ti       1.88795     13.63370      2.19294         0.679418      0.434795     -0.699246
Ti       1.90074     13.63044     14.60195         0.161243     -0.144735      1.050575
Ti      13.65664      1.93704      2.19568        -0.317667      0.694768      0.030888
Ti      13.55064      1.93531     14.55399         0.954973      0.447886     -0.297324
Ti      13.72442     13.71892      2.13985        -0.255320     -0.897919      0.377715
Ti      13.61582     13.56787     14.68784        -0.022265      0.590362      0.414385
Ti       1.85636      1.97569      6.36280         1.107609     -1.006749      0.001041
Ti       1.90942     13.54491      6.36095         0.195192      1.339507      1.373368
Ti      13.67308      1.98577      6.31579        -0.780734     -0.535333     -0.497134
Ti      13.64605     13.64742      6.34641        -0.209635     -0.571717      0.969487
Ti       1.94271      1.89859     10.51221        -0.651835      0.211283      1.121512
Ti       2.01248     13.60633     10.53057        -1.025773      0.156426      0.454551
Ti      13.53246      1.96871     10.48459         1.523043      0.167928      1.693296
Ti      13.50972     13.53239     10.52815         0.406317      1.021297     -0.401662
Ti       1.90649      5.95552      2.16169        -0.461113     -1.435959      0.836511
Ti       2.05296      5.77513     14.54584        -1.475119      0.210666     -0.421828
Ti      13.50629      5.87154      2.20603         0.821215     -0.147133     -0.162591
Ti      13.68917      5.82760     14.67194         0.151204     -1.164491     -1.050506
Ti       1.94527      5.81817      6.21718         0.898633      0.052730      1.513966
Ti      13.66957      5.79270      6.25948         0.071845      0.468399      0.121305
Ti       1.95767      5.74160     10.47551         0.153214      0.346519      1.285334
Ti      13.58895      5.87656     10.38866         0.914538     -1.687281     -1.078203
Ti       1.85812      9.81563      2.28648         0.170098     -0.881493     -0.057034
Ti       1.92192      9.65248     14.66820         0.507513      1.319598      0.210138
Ti      13.60698      9.75548      2.30232        -0.656936      0.516940     -0.114583
Ti      13.63908      9.64618     14.73548         0.063409      0.219097     -0.434806
Ti       1.87949      9.75541      6.29635         0.705727      0.030816     -0.215955
Ti      13.59505      9.73100      6.40174         0.476161      0.228487     -0.638865
Ti       1.86534      9.74354     10.56463         0.536777      0.223422     -0.612945
Ti      13.66958      9.67325     10.40993        -0.600688      0.815033     -0.521244
Ti       5.76305      1.93503      2.22454         0.295254      0.100482     -0.842744
Ti       5.86110      2.00243     14.62407        -0.918602     -0.879364      0.358417
Ti       5.80833     13.64928      2.26464         0.057584     -0.224222     -0.469966
Ti       5.75330     13.63117     14.67510         0.397373     -0.362358     -1.145424
Ti       5.72409      1.93043      6.24303         0.310258      0.226597      1.625636
Ti       5.79339     13.62846      6.39273         0.266179     -0.792316     -0.496301
Ti       5.90893      2.08308     10.41372        -0.012319     -0.613321     -0.204189
Ti       5.80572     13.74319     10.57606         0.395250     -0.456373      0.978918
Ti       5.80001      5.89895      2.12377         0.466688     -0.592111     -0.780271
Ti       5.91527      5.90281     14.62912        -0.236477     -0.629460      0.751344
Ti       5.86744      5.91052      6.27406         0.225706     -0.521119      1.109525
Ti       5.92013      5.92141     10.44002        -2.058631      0.804502     -0.324117
Ti       5.78396      9.76848      2.24300         0.517449     -0.272700     -0.814059
Ti       5.82614      9.69893     14.74678         0.581449      1.764851     -0.878757
Ti       5.83523      9.76325      6.31404        -0.278609      1.507501      1.136566
Ti       5.74570      9.88785     10.62922         0.011091     -1.340978     -0.720882
Ti       9.67085      1.87627      2.18653        -0.185025      0.139111     -0.214807
Ti       9.67751      1.90812     14.61902        -0.180861     -0.622292      0.229856
Ti       9.68508     13.65143      2.22029        -0.149734      0.870771     -0.241286
Ti       9.80938     13.64495     14.64186        -1.039566     -0.094297     -0.288686
Ti       9.71005      1.77699      6.38257         0.536445      0.461017     -0.383899
Ti       9.69077     13.58237      6.28896        -0.235675      1.046600      0.966430
Ti       9.78349      1.96422     10.48680        -0.644335     -0.274717     -1.351017
Ti       9.76289     13.63668     10.50183        -1.085852     -0.189784      0.398410
Ti       9.71979      5.92728      2.09881         0.154524     -0.797981      0.259374
Ti       9.82583      5.81441     14.62491        -2.045909      0.850991     -0.535588
Ti       9.91719      5.82562      6.28540        -2.015412      0.396778      1.323975
Ti       9.65679      5.97442     10.48589         0.864749     -1.395052     -1.198284
Ti       9.68419      9.74023      2.11215         0.458033      0.344992      1.786792
Ti       9.76606      9.68155     14.62896        -1.127353     -0.195211     -0.028864
Ti       9.70987      9.72799      6.34235        -0.759079     -0.635710     -0.200888
Ti       9.69097      9.76580     10.59932         0.461331      0.199555     -0.991560
O       1.89676      2.04588      0.41089        -0.553801     -0.108058     -0.151786
O       1.91647      2.05872     12.82878         0.242564     -0.245425      0.032883
O       1.79309     13.68775      0.38822         0.029243     -0.022393      0.686055
O       1.84644     13.61923     12.81824         0.401703     -0.247917      0.392256
O      13.47104      1.87324      0.41151         0.279106      0.401478     -0.232192
O      13.49978      2.10627     12.76620        -0.092889     -0.451934      1.002598
O      13.75375     13.78613      0.34857        -0.265347     -0.430891      0.220000
O      13.46445     13.46840     12.92605        -0.016482      0.129990     -0.770870
O       1.87457      1.99096      4.53522        -0.177912      0.102159      0.502944
O       1.87158     13.57350      4.61061        -0.050011      0.281993     -0.928624
O      13.71396      1.88661      4.51143        -0.241755     -0.163129     -0.285135
O      13.52666     13.62328      4.58817         0.611170      0.524001     -0.742670
O       1.80414      1.81459      8.77688         0.172123      0.242252     -1.189090
O       1.86787     13.60920      8.76362        -0.163968      0.350022     -0.569676
O      13.52228      1.90377      8.72495         0.233340     -0.112408     -1.107328
O      13.59749     13.65728      8.73995         0.177257      0.093560      0.063891
O       1.95827      5.77229      0.39974        -0.085100      0.629471     -0.591159
O       1.85680      5.92196     12.71475         0.354892     -0.356907      1.060155
O      13.48911      5.88189      0.40359        -0.004535     -0.139257     -0.770778
O      13.59870      5.84792     12.81020         0.226713      0.464269      0.589486
O       2.08064      5.74955      4.47651        -0.336041      0.347732     -0.619876
O      13.78277      5.90312      4.47098        -0.591687     -0.109171      0.156706
O       1.89941      5.82381      8.73534         0.082267      0.125281     -1.527283
O      13.66714      5.88615      8.55999         0.025765     -0.475144      0.947117
O       1.90611      9.67016      0.51513        -0.230740      0.062886     -0.442249
O       1.98786      9.77682     12.90151        -0.605943     -0.049225     -0.559261
O      13.49722      9.71653      0.50675        -0.042959     -0.044786     -0.881156
O      13.88438      9.40228     12.98694        -0.616348      0.851442     -0.047002
O       1.83941      9.84084      4.50745         0.334300      0.039738      0.111085
O      13.50544      9.58990      4.55986         0.354994      0.317239      0.662596
O       1.94033      9.67018      8.73899        -0.062619      0.471391     -0.366839
O      13.62863      9.70584      8.61268        -0.048052      0.165960      0.626259
O       5.78164      1.73538      0.37442         0.098467      0.651061      1.292670
O       5.75321      2.12360     12.80530         0.478863     -0.315969      0.359927
O       5.76401     13.60302      0.40390         0.219177      0.291260      0.491759
O       5.68002     13.59141     12.81746         0.091594      0.315713      0.905656
O       5.74061      2.02591      4.50835        -0.147666     -0.325780     -1.409071
O       5.70822     13.45354      4.59608        -0.519443      0.672352      0.066902
O       5.88364      1.93542      8.62429        -0.150938      0.174520      0.390217
O       5.97785     13.85181      8.84049        -0.221625     -0.471378     -1.584173
O       5.67760      6.03999      0.28556         0.527281     -0.141753      0.347474
O       5.95951      5.88743     12.81008         0.196366     -0.373090      0.482322
O       5.99416      6.02541      4.49517        -0.421105     -0.233957      0.329661
O       5.64016      5.96678      8.62332         0.677657      0.057902      0.452164
O       5.81871      9.76554      0.40818        -0.221633      0.021268      0.108756
O       5.92279      9.80786     12.87837        -0.414633     -0.365455      0.292996
O       5.78864      9.85303      4.54831        -0.108243     -0.157111     -1.033898
O       5.54102      9.75063      8.83270         0.571987      0.401295     -0.405449
O       9.62499      2.07825      0.36009         0.144883     -0.075549      0.252953
O       9.65149      1.75792     12.82661         0.205781      0.771722     -0.059641
O       9.64715     13.72160      0.42210        -0.153014     -0.788905     -0.079550
O       9.89571     13.61941     12.87003         0.157136      0.299503     -0.217572
O       9.72967      1.66258      4.57775        -0.195058      0.462631     -0.625819
O       9.78176     13.77181      4.53768        -0.223884      0.316414     -0.777276
O       9.84354      2.04472      8.58430        -0.288568      0.028267      1.220514
O       9.41343     13.44407      8.75284         0.647366      0.130889     -0.711526
O       9.69453      5.64046      0.33523         0.270638      0.660062     -0.457402
O       9.49845      5.91224     12.76698         0.494079     -0.160654      0.493209
O       9.52157      6.08667      4.56644         0.487254     -0.459384     -0.471529
O       9.76482      5.78358      8.66961         0.067384     -0.139762      0.124463
O       9.76005      9.90551      0.36052         0.228261      0.061645     -0.777687
O       9.63133      9.51710     12.84841         0.192619      0.377329     -0.493588
O       9.64591      9.69021      4.52841         0.225693     -0.250958      0.573835
O       9.67088      9.84735      8.72446         0.405866      0.580688     -0.138939
O       3.76485      2.00624      2.36575         1.044711      0.123912      0.609109
O       3.79554      1.99089     15.02057         0.554307     -0.319345     -0.447332
O       3.80894     13.67850      2.53452        -0.232834     -0.317162      0.078434
O       3.75689     13.63998     15.01286        -0.091730      0.161248     -0.177479
O      15.48090      2.02835      2.42580         0.519613     -0.159296     -0.049518
O      15.47970      2.02590     14.90449        -0.104662      0.450393      0.208223
O       0.01567     13.79932      2.52100        -1.617889     -0.397328      0.246143
O      15.50696     13.52182     14.85302         0.454668      0.310841      0.196302
O       3.85971      1.97321      6.60749         0.014576      0.145810      0.008044
O       3.83879     13.62715      6.66053        -0.531298      0.203317      0.356164
O      15.56721      2.01509      6.68776         0.747189     -0.125714      0.105875
O      15.55582     13.68924      6.75085         0.074108      0.007503     -0.259478
O       3.93237      1.95188     10.77643        -0.061067      0.053440     -0.096975
O       3.84274     13.78702     10.66443         0.694566     -0.370510      0.342227
O      15.53060      1.84400     10.87648        -0.052773      0.316474     -0.485550
O      15.51090     13.70443     10.84347        -0.184998     -0.480105     -0.110666
O       3.97215      5.93636      2.43635        -1.915897      0.509635      0.559888
O       3.81770      5.80405     14.80637         1.852191      0.374340      0.108527
O      15.50825      5.84070      2.33529         0.122716      0.323478      0.449920
O      15.59644      5.77633     14.82405        -0.793873      0.193474      0.644296
O       3.83760      5.78890      6.62747         1.010420      0.625511     -0.437802
O       0.06193      5.81284      6.42729        -0.276062      0.109731      0.605806
O       3.88537      5.90960     10.76113        -0.169096     -0.040648      0.341701
O       0.01190      5.66521     10.69015        -0.950367      0.645176      0.362105
O       3.79392      9.63705      2.43665         0.722648      0.398564      0.517221
O       3.88033      9.78427     15.04127        -0.160115     -0.597089      0.038407
O      15.49855      9.78701      2.55302        -0.015368     -0.298288      0.005807
O      15.59001      9.63276     15.22362        -0.379709      0.234213     -0.816636
O       3.87686      9.95034      6.58817        -0.926754     -0.600378     -0.052859
O      15.56620      9.66019      6.47788         0.284384     -0.078476      0.627579
O       3.82339      9.75365     10.88900        -0.045731      0.445953      0.401884
O      15.53799      9.84098     10.69169        -0.063422     -0.355847      0.444979
O       7.67556      2.10154      2.47146         0.105508     -0.355821      0.203163
O       7.74192      1.83537     15.02102         0.208237      0.326747     -0.473063
O       7.67618     13.70838      2.69514         0.820736     -0.275676     -0.594203
O       7.77017     13.51487     14.83660        -0.492502      0.701575      0.402679
O       7.77135      1.80656      6.56996        -0.007696      0.472564      0.034596
O       7.70199     13.67896      6.45306         0.889238      0.377500      0.459621
O       7.80260      1.94385     10.71772        -0.152598      0.177314      0.146518
O       7.83327     13.63444     11.03496        -1.084028      0.188578     -0.350716
O       7.80953      5.89978      2.40411        -0.012906     -0.078799     -0.040612
O       7.74095      5.89522     15.09044        -0.289462     -0.541234     -0.632521
O       7.77203      5.93251      6.82763        -0.559145      0.052845     -0.842899
O       7.76179      5.88627     10.56808         0.108370     -0.109822      0.311704
O       7.72284      9.85392      2.42859         0.937179     -0.091183      0.024345
O       7.78786      9.84050     14.88505        -0.456541      0.121008      0.753175
O       7.77802      9.86981      6.56093        -0.148817     -0.306366      0.463831
O       7.82533      9.86956     10.62518        -1.467742     -0.514583      0.848216
O      11.52979      1.90819      2.49626         0.699980      0.042260      0.080755
O      11.60550      1.90313     14.97530        -0.304937     -0.038979     -0.207355
O      11.64218     13.81078      2.42751        -0.069103     -0.542453      0.018589
O      11.66892     13.72006     15.12865         0.599652     -0.521943     -0.050494
O      11.71154      1.99302      6.57459         0.291504     -0.368596     -0.106584
O      11.69338     13.61395      6.59540        -0.029787      0.029013      0.600183
O      11.67246      1.93041     10.80657        -1.175081     -0.135897      0.161616
O      11.59968     13.62613     10.57335         0.946757     -0.205504      0.480247
O      11.62017      5.97020      2.49801        -0.757539     -0.417251      0.230589
O      11.59110      6.00111     14.69969         0.780954     -0.085811      0.505491
O      11.71887      5.73932      6.49738         0.703983      0.621830     -0.048155
O      11.71474      5.80927     10.66752        -0.253234      0.561770      0.749594
O      11.61925      9.89096      2.63812        -0.911309     -0.564242     -0.590081
O      11.68222      9.68373     14.67931         0.346898     -0.176075      0.888814
O      11.67757      9.80959      6.69301        -0.328364     -0.474868     -0.478571
O      11.64809      9.83077     10.84885         1.168759     -0.722698      0.037016
O       1.78049      3.99083      2.56173         0.780139     -0.602904     -0.188104
O       1.97162      3.90779     14.92014        -0.650528      0.173360      0.156676
O       1.80956      0.02865      2.61032         0.335644      0.094058     -0.262725
O       1.79833      0.08201     15.00941        -0.030859     -1.487768     -0.397081
O      13.44177      3.92082      2.47183         0.192440     -0.482054     -0.090390
O      13.34698      3.93426     14.88592         0.711468      0.163019      0.447150
O      13.56179     15.59101      2.42278         0.358935      0.370694      0.378361
O      13.59139      0.02743     14.81091        -0.155935     -0.342848      0.210466
O       2.04054      3.88324      6.69036        -0.821739     -0.001153     -0.109708
O       1.91283     15.59163      6.67077        -0.248117      0.450956     -0.190897
O      13.72052      3.87682      6.42964        -0.060578      0.730287      0.779323
O      13.71157      0.07187      6.59950        -0.372922     -1.209892      0.376538
O       1.99380      3.84725     10.78023        -0.117151      0.082835     -0.145462
O       2.00278      0.02778     11.00915        -0.485294     -0.363680     -0.793062
O      13.52190      3.89252     10.70568         0.361900     -0.053599      0.013091
O      13.44139     15.56009     11.01348         0.495367     -0.293018     -0.813396
O       1.73997      7.79417      2.63652         0.703183      0.024225     -0.496551
O       1.95004      7.84324     14.84539        -0.152578     -1.750045      0.600149
O      13.41197      7.80375      2.49319         0.797542      0.482259      0.124458
O      13.56962      7.69847     15.10033         0.422925      0.708526     -0.069736
O       2.02206      7.82384      6.51914        -0.248693     -0.363205      0.033094
O      13.66210      7.73782      6.72876        -0.305915      0.258018     -0.677594
O       1.87754      7.89611     10.80947        -0.047267     -1.037001      0.187492
O      13.64258      7.79507     10.64675         0.009411     -0.218821      0.534835
O       1.73298     11.72887      2.54136         0.598025     -0.172262     -0.428312
O       1.92993     11.63656     15.03918        -0.431335      0.629899     -0.124535
O      13.52546     11.71747      2.60441         0.544282      0.996727     -0.626910
O      13.58889     11.60746     14.95522        -0.033620     -0.123654      0.175316
O       1.77998     11.68052      6.64561         0.033414     -0.256773      0.217073
O      13.77081     11.66423      6.69005        -0.429908      0.032261     -0.263498
O       1.90152     11.72687     10.78793         0.118950      0.035737      0.287512
O      13.62021     11.63091     10.88053        -0.206616      0.386273     -0.014628
O       5.81391      4.03694      2.43033        -0.031686     -1.521344      0.034083
O       5.91593      3.81666     15.00553        -0.248923      1.219705     -0.163723
O       5.69680     15.52739      2.53505         0.096327      1.688129      0.261085
O       5.63726     15.59951     14.83853         0.561748     -0.121319      0.328792
O       5.87493      4.01453      6.54528        -0.057721     -0.734513      0.104076
O       5.69121      0.01843      6.62691         0.191809     -0.203279     -0.230113
O       5.79982      3.98276     10.62101         0.187696     -0.428472      0.332092
O       5.81051      0.01591     10.82014         0.362037      0.865244      0.332892
O       5.92995      7.80043      2.48606        -0.461588      1.301958      0.238123
O       5.86849      7.82161     14.87249        -0.303657     -0.402665      0.063885
O       5.79026      7.96318      6.63265        -0.131337     -1.725265      0.015578
O       5.76159      7.89006     10.76695         0.646825     -0.842808      0.508402
O       5.88196     11.71415      2.57098        -0.942231     -0.660440     -0.309118
O       5.62463     11.74079     14.88302         0.269611     -0.469061      0.641582
O       5.69545     11.73747      6.76263         0.679430      0.084059      0.216172
O       5.73553     11.76637     10.84120         0.103572      0.063895     -0.187569
O       9.72677      3.99060      2.54771        -0.390636     -0.537438      0.093170
O       9.65834      3.90853     14.74353        -0.015382     -0.434263      0.198255
O       9.49314      0.03893      2.29011        -0.004596     -0.085891      0.472681
O       9.70633     15.59137     14.90670        -0.138040      0.137123      0.456610
O       9.77335      3.91800      6.40564        -0.731751     -0.107965      0.406394
O       9.85035     15.57368      6.76093        -0.449380     -0.712488      0.068000
O       9.79787      3.87040     10.78646        -0.750312     -0.275089      0.273311
O       9.65985     15.57070     10.66213         0.283172      0.529831      0.233623
O       9.63456      7.85406      2.31889         0.213721      0.452299     -0.066243
O       9.57823      7.79900     15.03959         0.515388     -0.024912      0.076061
O       9.76301      7.83622      6.82462         0.138098      0.059180     -0.740482
O       9.81976      7.74761     10.54123        -0.187892      1.476464      0.691061
O       9.68464     11.78866      2.52787        -0.114853     -0.371971     -0.388062
O       9.78944     11.72985     14.85353         0.441280     -0.874976      0.731507
O       9.70257     11.73014      6.43890         0.262160     -0.593527      0.763310
O       9.71026     11.65352     10.91168         0.277417      0.407884      0.235648
