  # total energy = -7883.67559034 
CRSYTAL
PRIMVEC
    15.6080000000000005    0.0000000000000000    0.0000000000000000
     0.0000000000000000   15.6080000000000005    0.0000000000000000
     0.0000000000000000    0.0000000000000000   16.6239999999999988
PRESSURE
-0.844 -0.944567 -1.16939 -0.219037 0.484204 0.015044
PRIMCOORD
320 1
Pb       3.93749      3.80975      4.13280        -0.195111      0.504638      0.159204
Pb       3.84230      3.83824      0.04656         0.304851      0.086194     -0.405311
Pb       3.91743     15.58462      4.15734        -0.164376     -0.086092      0.244507
Pb       3.84721     15.52675     16.62254         0.361139      0.451311     -0.172445
Pb      15.46441      3.83959      4.10236         0.755717      0.131125      0.335006
Pb      15.57434      3.85415     16.57109        -0.236644      0.002256      0.094349
Pb       0.05401     15.59018      4.11376         0.108195      0.101948      0.308288
Pb       0.07631     15.59143      0.00657        -0.625010     -0.203740     -0.236128
Pb       3.91767      3.91650      8.32085         0.015622      0.306975     -0.025181
Pb       3.96063      0.15537      8.38993         0.111416     -0.425747     -0.146946
Pb      15.57407      3.92652      8.23063         0.487636     -0.000308      0.100659
Pb       0.08111      0.01591      8.27306        -0.111869     -0.221366      0.129703
Pb       3.74495      4.01180     12.54812         0.721541     -0.278452     -0.470604
Pb       3.81330     15.46802     12.42159         0.189104      0.698859     -0.187597
Pb      15.56018      3.81566     12.35303         0.078005      0.255461      0.251091
Pb       0.01139     15.59552     12.43712        -0.092703      0.142059     -0.252763
Pb       3.76506      7.83034      4.08591         0.096413     -0.416322      0.207199
Pb       3.77643      7.72705     16.55946         0.841314     -0.037739      0.450889
Pb      15.60423      7.87706      4.01591         0.094100     -0.427671      0.272238
Pb      15.59086      7.79530     16.59757        -0.166079     -0.222016      0.681910
Pb       3.98413      7.80697      8.30055         0.248826     -0.249891     -0.055000
Pb      15.51299      7.80351      8.40433         0.130815     -0.170224     -0.875089
Pb       3.83074      7.85420     12.54708         0.461226     -0.036553     -0.575059
Pb      15.49519      7.74118     12.45720         0.323219     -0.094118     -0.166420
Pb       3.92700     11.71299      4.15164        -0.041788     -0.007026     -0.120171
Pb       3.86873     11.67865     16.52255         0.496897     -0.155546      0.258011
Pb       0.00178     11.81670      4.11700         0.294930     -0.187615      0.452696
Pb       0.05286     11.80246      0.08789        -0.689843     -0.190058     -0.445057
Pb       3.86916     11.74445      8.29753        -0.069042     -0.063088     -0.212685
Pb      15.44693     11.69705      8.22047         0.651214      0.378902     -0.125525
Pb       3.79403     11.81566     12.46430         0.340240     -0.464894     -0.403225
Pb      15.56122     11.53830     12.38413         0.121015      0.164346      0.470367
Pb       7.71755      3.81301      4.09946         0.538890      0.300870      0.013141
Pb       7.60925      3.73085     16.58415         0.946138      0.537237      0.102726
Pb       7.69964     15.55621      4.08537         0.809740      0.080040      0.358174
Pb       7.76505     15.51260      0.02840         0.388055      0.562715     -0.350220
Pb       7.75982      3.89253      8.40417        -0.320114     -0.076983     -0.176548
Pb       7.86065     15.53744      8.43502        -0.653449      0.217509     -0.394372
Pb       7.79555      3.91074     12.51432        -0.556134     -0.064601     -0.460023
Pb       7.89974      0.07520     12.52625        -0.347042     -0.162923     -0.072780
Pb       7.67451      7.79257      3.98689         0.551073      0.057344      0.124784
Pb       7.81260      7.84253     16.53141        -0.078164     -0.313290      0.373633
Pb       7.91382      7.84112      8.37229        -0.714312      0.014900     -0.255744
Pb       7.91355      7.70458     12.51703        -0.935217      0.092801     -0.432819
Pb       7.76409     11.78248      4.04633         0.010731     -0.379638     -0.198272
Pb       7.77493     11.60188     16.55856         0.196384      0.007728      0.056885
Pb       7.64431     11.66898      8.30818         0.565922      0.158590      0.223878
Pb       7.77759     11.59956     12.49126         0.033121      0.475191      0.168720
Pb      11.73760      3.98060      4.26907        -0.623365     -0.337494     -0.419321
Pb      11.77149      3.93969      0.00785        -0.740339     -0.299538     -0.238568
Pb      11.69504      0.15584      4.20705        -0.316620     -0.144963     -0.169086
Pb      11.66326     15.56434     16.60223         0.132242      0.434285     -0.230735
Pb      11.63763      3.94795      8.31222         0.028647     -0.331446     -0.026384
Pb      11.48469     15.50530      8.21793         0.796058      0.264669      0.846870
Pb      11.69040      3.79249     12.44745         0.126881      0.203868     -0.079376
Pb      11.73985     15.49214     12.40359         0.213617      0.372425     -0.161229
Pb      11.76550      7.65155      3.98360        -0.376992      0.370054      0.457893
Pb      11.65707      7.75880     16.60691         0.049962     -0.027643      0.380259
Pb      11.65625      7.84112      8.11928         0.553745      0.129129      0.277915
Pb      11.62501      7.78451     12.51475         0.368461     -0.157981     -0.639650
Pb      11.65863     11.72443      4.30679        -0.245222      0.148761     -0.083735
Pb      11.89780     11.75679     16.58619        -0.389397     -0.152887      0.304323
Pb      11.73605     11.72476      8.31032        -0.694470     -0.146334     -0.353250
Pb      11.59050     11.65122     12.32920         0.217244      0.216725      0.597278
Ti       1.95617      1.97059      2.17622         0.359838     -0.235646      0.568492
Ti       1.87858      1.91795     14.74466         0.911536     -0.131084     -0.627972
Ti       2.00123     13.63339      2.21295         0.964142      0.402201     -0.021609
Ti       1.95896     13.62095     14.66438        -0.328647      0.248744     -0.392377
Ti      13.66851      1.90750      2.22163        -0.797638      0.232889     -0.058551
Ti      13.56949      1.90033     14.66467        -0.053934     -0.391323     -0.246612
Ti      13.69337     13.72499      2.25465        -0.448766     -0.386020     -0.664537
Ti      13.66350     13.61844     14.59975         0.272063      0.401593      0.834160
Ti       1.92588      1.86625      6.32580         0.591000      0.891375      0.283255
Ti       2.01689     13.64512      6.40536        -0.308979     -0.233730      0.238693
Ti      13.59355      1.92513      6.39432        -0.066802     -0.100078     -0.585187
Ti      13.63575     13.74401      6.36894         0.184502     -0.342970      0.402646
Ti       1.95216      1.91828     10.56418         0.651313     -0.155450      0.040560
Ti       1.84860     13.58016     10.49032         1.168393      0.828073     -0.186700
Ti      13.71667      1.86904     10.40911        -0.682389      0.121543      2.023972
Ti      13.70303     13.52865     10.49601        -1.065714      2.152253     -0.990769
Ti       1.92009      5.80952      2.15176         0.529994     -0.043974      1.723863
Ti       1.96480      5.79145     14.68290         0.294914     -0.301770     -1.071754
Ti      13.63031      5.77040      2.22837         0.538224      0.624463      0.396140
Ti      13.70238      5.83608     14.75120        -0.420547     -0.290681     -0.820777
Ti       1.98958      5.77336      6.33165         0.840960      0.234036     -0.336540
Ti      13.72515      5.79634      6.29074        -0.893179      0.595679      0.336654
Ti       1.93114      5.77541     10.49546         0.794114      0.206531     -0.050838
Ti      13.55839      5.85539     10.49877         1.073863     -0.913303     -0.571003
Ti       1.86567      9.74435      2.19604         0.453020      0.315509      0.267843
Ti       1.88839      9.69357     14.75017         0.453799      0.194081     -0.091297
Ti      13.59579      9.87278      2.27889         0.928868     -0.619706     -0.385074
Ti      13.69633      9.72704     14.73260         0.444312      0.333916     -1.000110
Ti       1.96769      9.65674      6.44733         0.276010      0.299709     -0.557993
Ti      13.67944      9.76965      6.28993        -0.765409     -0.649835     -0.011342
Ti       1.90914      9.66427     10.46925         0.577998     -0.025920      0.173638
Ti      13.56633      9.73883     10.53444        -0.189910     -0.862518      0.400181
Ti       5.82754      1.88933      2.21655         0.463873      0.612426     -0.611939
Ti       5.82320      1.90504     14.62815        -0.155298      0.221723      0.122873
Ti       5.86116     13.68912      2.12321        -0.267807     -1.910649      0.349717
Ti       5.87831     13.62607     14.70023         0.253812      0.455903     -1.617533
Ti       5.82263      1.92858      6.45371         0.201887     -0.302677      0.426439
Ti       5.83677     13.63865      6.43777        -0.243152      1.043198      0.291100
Ti       5.82991      1.99165     10.57808        -0.248049      0.700964      0.065537
Ti       5.85527     13.73118     10.63809         0.198666      0.054090     -0.647323
Ti       5.86244      5.79991      2.14176        -0.165788      0.028075     -0.089058
Ti       5.89428      5.84810     14.71311        -0.091772     -0.878428     -0.405393
Ti       5.98718      5.88522      6.35494        -1.079029     -0.068907      0.011068
Ti       5.81242      5.94026     10.45201        -0.703820     -0.627110      0.241219
Ti       5.76323      9.68612      2.19847         0.783042      1.091753     -1.000260
Ti       5.86138      9.67425     14.73598        -0.419848      0.514611     -1.155644
Ti       5.88903      9.78142      6.34741        -0.667639     -0.838666     -0.034397
Ti       5.76654      9.86860     10.59563        -0.215426     -2.256618     -0.555948
Ti       9.75618      1.94342      2.25909        -0.187045      0.069771      0.114092
Ti       9.70502      1.91899     14.64247         0.200651      0.384137      0.608609
Ti       9.88719     13.63797      2.17152        -0.683730      0.684746     -0.174854
Ti       9.80273     13.63619     14.69006        -0.440115     -0.064440     -0.773430
Ti       9.67532      1.93489      6.44228        -0.185388      0.114895     -0.128110
Ti       9.67729     13.60622      6.42659        -0.090600     -0.634723     -0.635852
Ti       9.75261      1.95791     10.54226         0.126360     -0.059355     -0.941049
Ti       9.71211     13.61117     10.64320         0.346077      0.009598     -1.023919
Ti       9.69781      5.85920      2.14846        -0.498443     -1.548105      0.127682
Ti       9.77095      5.85204     14.64481        -0.324000     -1.718658      0.445388
Ti       9.78412      5.81636      6.39591         0.004925     -0.326403     -0.480575
Ti       9.72811      5.85687     10.47013        -0.344330     -0.711406      0.600416
Ti       9.79040      9.82386      2.18754        -0.771070     -0.631356     -0.068155
Ti       9.91416      9.74101     14.64355        -1.459513      0.870321     -0.088435
Ti       9.66541      9.71985      6.31241         0.749798      0.896457     -0.578863
Ti       9.62736      9.71798     10.50369         0.604952      0.379837     -1.022416
O       2.05108      1.91825      0.38898        -0.607786      0.291096      0.453171
O       1.84739      1.80744     12.96584         0.120949      0.004365     -0.075811
O       2.17044     13.69038      0.40894        -0.881781     -0.555499      0.052038
O       1.97432     13.69312     12.82678        -0.201009     -0.232101      1.163881
O      13.66096      1.86771      0.45702         0.046866      0.157284     -0.301595
O      13.66805      1.94530     12.86890         0.107643     -0.096398      0.848571
O      13.66202     13.63524      0.42771         0.062014     -0.120664      0.959752
O      13.68072     13.57953     12.83821         0.066319      0.077008     -0.133865
O       2.13273      1.97391      4.56866        -0.538692     -0.254767     -0.410241
O       1.95394     13.57692      4.62126        -0.099287      0.513686     -0.612458
O      13.56708      1.96937      4.57203         0.131716     -0.312452      0.095773
O      13.76678     13.67533      4.57705        -0.158678     -0.372479     -0.309194
O       1.92267      1.93396      8.79886         0.053471     -0.082113     -0.765961
O       1.93045     13.70125      8.73589        -0.081096     -0.287308     -0.467959
O      13.65488      1.86824      8.69663         0.118313      0.332762     -1.740989
O      13.59502     13.59245      8.66934         0.175296     -0.169424      1.046854
O       1.98441      5.71570      0.40082        -0.065506      0.254931     -1.043894
O       2.01934      5.79091     12.85099        -0.032881      0.127261      1.024830
O      13.70467      5.71069      0.47379        -0.059575      0.144191     -1.425572
O      13.71194      5.90516     12.97891        -0.186402     -0.266683     -0.149599
O       2.08289      5.94885      4.50588        -0.193676     -0.037766      0.826283
O      13.53676      5.73343      4.49042         0.393154      0.194906     -0.104858
O       1.91410      5.63734      8.71813        -0.324144      0.467707     -0.204890
O      13.65517      5.76795      8.66398         0.099849      0.310377      0.845705
O       1.83613      9.60914      0.43519         0.365477      0.621783     -0.824787
O       1.72459      9.52360     13.01630         0.262935      0.713026     -0.678406
O      13.68796      9.88980      0.50411        -0.128401     -0.405864     -1.016797
O      13.74947      9.75423     12.90165        -0.007327     -0.234784      0.678334
O       2.01463      9.58422      4.61745        -0.118554      0.171754      0.368348
O      13.64618      9.80817      4.49619         0.107712      0.007688      0.269850
O       1.89219      9.70525      8.67473         0.011478      0.182488      0.819974
O      13.51418      9.61692      8.77390         0.692346      0.361797     -0.122990
O       6.00753      1.90290      0.42810        -0.398355      0.078238      0.202305
O       5.93368      2.05273     12.88198        -0.127381     -0.487144     -0.702513
O       5.72981     13.64381      0.36494         0.387414     -0.048267     -0.729165
O       5.92406     13.63162     12.81732        -0.429999     -0.443009      1.289074
O       5.72159      1.88579      4.67614         0.262423      0.038079     -1.037173
O       5.78818     13.78440      4.68947         0.300356     -0.468744     -1.500410
O       5.72988      1.82303      8.77320         0.375678      0.144912     -0.224863
O       5.99792     13.64664      8.82256        -0.375468     -0.263246      0.263507
O       5.93935      5.73794      0.34762        -0.035245     -0.057149     -0.070964
O       5.84074      5.75524     12.91914         0.176915      0.359988      0.047473
O       5.96222      5.81584      4.53219        -0.221421      0.221525      0.905897
O       5.79799      5.96956      8.65529         0.291497     -0.088019     -0.090334
O       5.82890      9.78600      0.38513        -0.031217     -0.219961      0.100379
O       5.75659      9.56166     12.92851         0.483262      0.781930     -0.073971
O       5.89292      9.69706      4.56660         0.091335      0.108172     -0.743842
O       5.85683      9.78454      8.78320        -0.264506      0.137997      0.345231
O       9.67514      1.72612      0.50831        -0.033560      0.225536     -0.769942
O       9.64127      1.91850     12.86327         0.505758      0.394942     -0.422174
O       9.79361     13.60065      0.34490         0.292393      0.407998      1.006203
O       9.72511     13.53240     12.84962         0.602158      0.154203      0.760571
O       9.66402      1.90297      4.65256         0.339695      0.000262      0.086392
O       9.73561     13.62153      4.63845        -0.068621     -0.094275     -0.060704
O       9.76946      1.86768      8.70232        -0.265287      0.031016      1.404632
O       9.76626     13.59839      8.81738        -0.265554      0.344925     -0.062261
O       9.70653      5.73504      0.38351         0.443608      0.426367     -0.038442
O       9.78164      5.81213     12.80969        -0.183311      0.381861      0.743017
O       9.87593      5.72526      4.60557        -0.259725      0.225091      0.255805
O       9.82545      5.90860      8.69560        -0.045548     -0.136518      0.346339
O       9.95287      9.75295      0.38678        -0.548731     -0.101702     -0.125832
O       9.79158      9.75458     12.79874        -0.120540     -0.376274      1.188875
O       9.58660      9.71771      4.47713         0.669968      0.072347      0.830573
O       9.69698      9.79878      8.68351         0.053065     -0.679332      0.950132
O       3.89408      1.95478      2.44168         0.299938      0.328262      0.178891
O       3.97554      1.97398     15.09364        -0.700272     -0.045722     -0.370761
O       3.92783     13.44760      2.52432         0.143364      0.825874      0.198769
O       3.89470     13.57152     14.89405        -0.606217     -0.461273     -0.053281
O       0.01281      1.89276      2.56261         0.625324     -0.235281     -0.136557
O       0.00917      1.83602     15.12134        -0.526266      0.227286     -0.321669
O       0.09790     13.87605      2.45693        -0.767448     -0.931861      0.053688
O      15.57026     13.66888     15.02690         0.848834      0.107868     -0.006489
O       3.87786      1.95952      6.69506        -0.055130     -0.231012      0.386351
O       3.88246     13.68883      6.71999         0.314582     -0.286736      0.332572
O      15.59793      1.82588      6.58285        -0.371169      0.304166      0.175840
O      15.53278     13.74209      6.76915         0.346231     -0.679802     -0.297920
O       3.93751      1.90899     10.92804        -0.555490     -0.018749     -0.012393
O       3.90305     13.53159     10.77326         0.172621      0.461568      0.497226
O       0.00781      1.75494     10.80010        -0.080565      0.822065      0.223947
O      15.60156     13.61897     10.71261        -0.372548      0.090146      0.422559
O       3.98120      5.79131      2.37307        -0.816726      0.364131      0.291683
O       3.98446      5.71597     15.04827        -0.916336      0.237675     -0.032714
O       0.07452      5.92718      2.50101        -0.548487     -0.278471      0.126784
O       0.07254      5.75342     14.95703        -0.570937      0.502172      0.336965
O       3.87357      5.74538      6.68311         0.305206      0.563311     -0.226579
O      15.56697      5.74158      6.52156         0.370397      0.201675      0.379473
O       3.91169      5.61729     10.74180        -0.546772      0.165765      0.357558
O       0.06670      5.83790     10.75989        -0.846065      0.468615      0.353245
O       3.88677      9.84030      2.47150        -0.041743     -0.436525      0.095474
O       3.86046      9.77868     14.90832        -0.475681     -0.061637      0.582746
O      15.57059      9.71405      2.46986         0.650728      0.050370      0.527585
O      15.56948      9.54453     15.13193         0.299003      0.415563     -0.387118
O       3.97444      9.70835      6.72229        -1.142545      0.212947     -0.008181
O      15.60679      9.75761      6.62770        -0.196906      0.118566      0.258455
O       3.80831      9.78232     10.93888        -0.233393      0.350416     -0.173089
O      15.55184      9.69470     10.89263         0.537110     -0.179639     -0.697106
O       7.75001      1.86164      2.59756        -0.583280     -0.467201      0.135204
O       7.79808      1.69128     14.91099         0.014901      0.216151      0.457718
O       7.82670     13.65174      2.39478        -0.076619      0.304302      0.328446
O       7.86433     13.73894     14.95273        -0.677847     -0.220677      0.281511
O       7.74899      1.83361      6.73744         0.186316      0.521407      0.176610
O       7.75735     13.56400      6.73221         0.628647      0.168941     -0.027316
O       7.83413      1.93451     10.87237         0.170710     -0.231977     -0.265302
O       7.88416     13.60623     10.99871        -0.963242      0.133637     -0.547065
O       7.77468      5.79563      2.43613         0.754702      0.135108      0.456963
O       7.86109      5.81070     14.97206         0.066276      0.537406     -0.278459
O       7.84147      5.79336      6.71883         0.123770      0.418235     -0.071617
O       7.72935      5.90913     10.75001         1.358348      0.130293      0.224578
O       7.84918      9.68064      2.38982         0.222630      0.351691      0.017990
O       7.79160      9.67297     14.89033         0.777634      0.217003      0.489729
O       7.78769      9.81156      6.73741         0.062300     -0.490038     -0.204983
O       7.73938      9.56109     10.77265         0.144450      0.389347      0.534873
O      11.68835      1.99358      2.47811         0.681501     -0.086381      0.389410
O      11.67279      1.90329     14.97550         1.005640      0.366584      0.074453
O      11.77001     13.56392      2.55790        -0.346172      0.153731     -0.100290
O      11.73065     13.53871     15.00225         0.216525     -0.086377     -0.341375
O      11.60008      1.88527      6.75714         1.093240      0.117272     -0.450299
O      11.64305     13.55139      6.68053         0.317214      0.299916     -0.134968
O      11.72740      2.13531     10.85643         0.119121     -0.881314     -0.303180
O      11.72648     13.59888     10.83859         0.035220     -0.172314      0.258128
O      11.73693      5.63215      2.45840        -0.549576      0.296371     -0.013209
O      11.66361      5.84635     15.07232         0.654956     -0.224088     -0.155922
O      11.74752      5.81262      6.64796        -0.342212     -0.039238      0.149822
O      11.73497      5.73448     10.90871        -0.213559      0.363717     -0.434353
O      11.78139      9.72472      2.42525        -1.557341      0.176861      0.846414
O      11.78249      9.77338     14.87119        -0.820659     -0.332860      0.304688
O      11.69271      9.80457      6.59861        -0.010776     -0.525194     -0.101564
O      11.67398      9.77095     10.91125         0.276383     -0.391377     -0.371739
O       1.94557      3.92360      2.53111        -0.056016     -0.776328     -0.244402
O       1.95978      3.83030     14.88235         0.057462      0.301861      0.645005
O       2.11260     15.59208      2.53249        -0.358706      0.289705     -0.095548
O       1.99986     15.57201     15.11676        -0.151005     -0.644768     -0.560656
O      13.84108      3.85773      2.46749        -0.355274     -0.282312      0.114911
O      13.66166      3.85924     14.99420         0.071077     -0.067127      0.241001
O      13.61968     15.60304      2.58507         0.070876      0.047835      0.023427
O      13.56061     15.53442     15.00184         0.350052      0.307324     -0.375959
O       1.94951      3.87861      6.67184        -0.518817     -0.325696     -0.265794
O       1.96562     15.57182      6.61429        -0.128287      0.773183      0.219296
O      13.60944      3.82297      6.44744         0.099623      0.421149      0.994380
O      13.54278     15.57775      6.58758        -0.083791      0.328414      0.205170
O       1.95255      3.81225     10.88264        -0.531948      0.247689      0.271688
O       1.96726      0.00702     10.82521         0.079769     -1.204830      0.336771
O      13.87285      3.90594     10.81642        -0.793985     -0.071824     -0.293175
O      13.68648     15.58816     10.80716        -0.468734     -0.380384      0.123503
O       1.96096      7.87374      2.44309         0.336423     -0.956441      0.201370
O       2.09449      7.71338     15.01964        -0.805031     -0.145129      0.034251
O      13.59082      7.70409      2.50328         0.252948      0.402327     -0.016051
O      13.59122      7.73040     15.03609         0.274919      0.449318      0.368077
O       1.89946      7.77106      6.80964        -0.031688     -0.174179     -0.306054
O      13.64252      7.79356      6.61306         0.268902     -0.107373     -0.068034
O       2.10693      7.75484     10.82096        -0.800536      0.401003     -0.485621
O      13.60814      7.76073     10.88352         0.075425      0.020582     -0.164281
O       1.94012     11.73906      2.61999        -0.707513     -0.668160     -0.531856
O       1.78764     11.66171     15.03030         0.373325      0.248339     -0.262857
O      13.78411     11.76404      2.54085        -0.054764      0.176836      0.091679
O      13.76564     11.61990     14.99901         0.047312      0.623887      0.110697
O       2.02829     11.75984      6.61581        -0.455930     -1.264219      0.652656
O      13.60418     11.65027      6.79036         0.345004      0.179896     -0.740803
O       1.93493     11.70425     10.81846        -0.358375     -0.949944      0.195445
O      13.69489     11.69524     10.79720        -0.039787     -1.068793     -0.051431
O       5.90140      3.86335      2.57236        -0.256831     -0.708549     -0.389091
O       6.00987      3.86382     14.84813        -0.036693     -0.409770      0.814945
O       5.74081     15.53943      2.39975         0.200267      0.689151      0.589951
O       5.69686     15.51568     14.90588         0.509076      0.151766      0.275419
O       5.92421      3.91364      6.82416        -0.181628     -0.372032     -0.498599
O       5.82696     15.54597      6.74709         0.017506      0.751747      0.309379
O       5.93179      3.87915     10.58714         0.235979     -0.244500      0.607278
O       5.83315     15.60145     10.82090         0.209194     -0.629202      0.366470
O       5.98094      7.77421      2.34252        -0.759723      0.215557      0.391787
O       5.86408      7.80472     14.95072        -0.193084     -0.978338      0.678444
O       5.84418      7.84101      6.67274         0.382706     -0.760292     -0.126340
O       5.56383      7.74898     10.80850         0.492432      0.570105      0.166964
O       5.90916     11.69876      2.45905         0.200324     -0.150643      0.466997
O       5.89892     11.67568     15.02400         0.043302      0.331300     -0.179677
O       5.80438     11.70448      6.61100        -0.005268     -0.219405      0.441280
O       5.80607     11.65968     10.84703         0.533627      0.677572      0.492072
O       9.59194      3.79925      2.51339         0.374904      0.593312      0.098338
O       9.78110      3.81344     14.93746        -0.219724      0.437483     -0.019198
O       9.84399     15.58310      2.66800        -0.218091     -1.024049     -0.419044
O       9.95012      0.00281     14.92170        -0.454666     -1.356666     -0.049984
O       9.76931      3.89423      6.85294        -0.207707     -0.102885     -0.484768
O       9.66898     15.58835      6.80750         0.030099     -0.889359     -0.591245
O       9.75612      3.92086     10.69704        -0.281471      0.016523      0.355814
O       9.83774      0.01158     10.96242        -0.136682     -0.319648     -0.547879
O       9.77908      7.68666      2.42663         0.481037      0.933621      0.115412
O       9.76200      7.76222     14.98363         0.416821      0.728295     -0.318983
O       9.76317      7.77398      6.75732        -0.350117      0.245532     -0.697912
O       9.72556      7.75716     10.80637         0.572103      0.201103      0.251802
O       9.78256     11.70371      2.48026         0.057385      0.090898      0.276616
O       9.68202     11.67020     14.94316         0.331591     -0.708572     -0.105111
O       9.75880     11.62893      6.59267        -0.137721      0.494966      0.167973
O       9.68965     11.62139     10.73926         0.049531      0.137470      0.749312
