  # total energy = -7882.31841522 
CRSYTAL
PRIMVEC
    15.6080000000000005    0.0000000000000000    0.0000000000000000
     0.0000000000000000   15.6080000000000005    0.0000000000000000
     0.0000000000000000    0.0000000000000000   16.6239999999999988
PRESSURE
-0.182879 -0.760325 0.131475 -0.05211 -0.059709 -0.022742
PRIMCOORD
320 1
Pb       3.80164      3.81173      4.07410         0.047800     -0.033702      0.451447
Pb       3.75932      3.76144      0.02892         0.330062      0.200144     -0.219827
Pb       3.91282     15.47101      4.26775         0.082927      0.058945     -0.295954
Pb       3.94427     15.55253      0.09326        -0.093583      0.306980     -0.504757
Pb      15.51594      3.83468      4.15132        -0.043664      0.378129     -0.113010
Pb      15.55272      3.93566     16.56858         0.078632      0.085136     -0.232512
Pb       0.12455      0.00661      4.22335        -0.384139     -0.115363      0.327011
Pb       0.02947     15.54194      0.01261        -0.127165      0.211450     -0.301481
Pb       3.99893      4.02539      8.33720        -0.248678     -0.402879      0.377419
Pb       3.89270      0.12360      8.50034         0.470284     -0.311749     -0.408127
Pb       0.07584      3.92207      8.22144        -0.054012      0.197313      0.012608
Pb       0.07164      0.08426      8.30248        -0.143404     -0.380522      0.045018
Pb       3.91204      3.98080     12.34027        -0.539379     -0.514838      0.872655
Pb       3.88075      0.00914     12.31609        -0.231382      0.127999      0.464236
Pb      15.51883      3.73356     12.22975         0.136517      0.649551      0.705903
Pb      15.44833     15.59901     12.36728         0.428898     -0.183110      0.056453
Pb       3.87679      7.71383      4.23928        -0.469070      0.027877     -0.689055
Pb       3.80737      7.82159     16.60969         0.113733     -0.582799      0.088522
Pb      15.55652      7.79156      4.07609        -0.293013      0.179265     -0.347174
Pb       0.02254      7.79623      0.01986        -0.271901      0.065528     -0.017920
Pb       4.02825      7.84029      8.23627        -0.356660      0.317532      0.165399
Pb       0.11888      7.85419      8.10184        -0.734421     -0.134236      0.668644
Pb       3.75369      7.85652     12.51866         0.535046     -0.536519      0.312969
Pb       0.01319      7.75724     12.39696        -0.669952     -0.223380      0.570216
Pb       3.98296     11.64308      4.25589        -0.060431      0.414484     -0.312253
Pb       3.90054     11.65343     16.53957         0.091004     -0.091129      0.432760
Pb       0.06461     11.77626      4.20596        -0.269436     -0.297164      0.090396
Pb       0.05416     11.72059      0.05040        -0.227842     -0.422911     -0.271329
Pb       3.89406     11.52666      8.25548        -0.186865      0.547576      0.485010
Pb      15.47084     11.72158      8.36097         0.508403      0.195553     -0.584791
Pb       3.77756     11.79695     12.59031        -0.208793     -0.064443     -0.567727
Pb      15.43718     11.61019     12.38520         0.166615      0.182081      0.407801
Pb       7.77626      4.02241      4.10812         0.267285     -0.623106     -0.087779
Pb       7.64934      3.67543      0.05999         0.266043      0.308899     -0.097339
Pb       7.75839      0.02142      4.09976         0.289541      0.042770      0.167747
Pb       7.79897     15.39163     16.60385        -0.247700      0.671341      0.064700
Pb       7.79747      3.98390      8.16899         0.137054     -0.429393      0.495343
Pb       7.76240     15.53805      8.43741        -0.338575      0.111214     -0.481277
Pb       7.75500      4.15418     12.44955         0.030047     -1.341567      0.303742
Pb       7.84483      0.13258     12.47526         0.182185     -0.628653      0.456807
Pb       7.62051      7.78377      3.98960         1.011014     -0.401227      1.040680
Pb       7.92644      7.77213     16.56389        -0.676218     -0.225742      0.797065
Pb       7.76641      7.80031      8.43851         0.187775      0.235091     -0.078722
Pb       7.76870      7.87245     12.57292         0.075293     -0.089968     -0.251136
Pb       7.72900     11.72647      4.09737        -0.179751      0.025164     -0.153319
Pb       7.85323     11.50074      0.00757        -0.137830      0.307006      0.062226
Pb       7.62119     11.61734      8.38747         0.774261      0.055918      0.255286
Pb       7.70298     11.68766     12.54751         0.443258      0.145158     -0.541678
Pb      11.59973      4.03626      4.10512         0.483041     -0.194647      0.088056
Pb      11.69503      3.72375     16.39102         0.000394      0.507067      0.924554
Pb      11.90672      0.22897      4.20943        -0.348305     -0.040380     -0.055525
Pb      11.73132     15.55184      0.04821         0.160942      0.583294     -0.638113
Pb      11.69485      3.72334      8.14546        -0.190279      0.415240     -0.198411
Pb      11.63947     15.40127      8.22722         0.047357      0.260195     -0.049219
Pb      11.57615      3.91483     12.40344         0.638413     -0.721950      0.276982
Pb      11.88981     15.57311     12.49358        -0.679300      0.029221      0.160617
Pb      11.69809      7.83566      4.05827         0.353849     -0.032876      0.213174
Pb      11.65058      7.72609     16.55683         0.416983      0.076205      0.436645
Pb      11.72422      7.81702      8.11373        -0.250219     -0.305435      0.122195
Pb      11.85972      7.55187     12.42843        -0.410979      1.070581      0.541371
Pb      11.51266     12.01806      4.19178         0.765780     -1.169204      0.571972
Pb      11.81839     11.79033     16.62024        -0.393373     -0.315780     -0.015850
Pb      11.63454     11.53577      8.11288        -0.101584      0.889808      1.041517
Pb      11.58445     11.57269     12.42911         0.295242      0.375538     -0.380562
Ti       1.90248      1.78866      2.25601         0.599332      1.109821      0.152891
Ti       1.96619      1.86648     14.62424         0.041969      0.258384     -1.042105
Ti       1.91408     13.59477      2.26942         1.025941     -0.287505      0.926698
Ti       1.96463     13.61849     14.66153        -0.827699      0.938037     -1.045231
Ti      13.69156      1.97089      2.14827        -0.296164     -0.011748     -0.020377
Ti      13.77474      1.94012     14.70809        -1.209131     -0.671749     -0.192392
Ti      13.60664     13.65842      2.30430         1.210861     -0.202746      0.194781
Ti      13.68327     13.67581     14.75230        -0.276781      0.533251     -0.014603
Ti       2.05997      2.00348      6.46531        -0.742479      0.220596     -0.830646
Ti       2.05386     13.70951      6.48414        -1.206267     -0.871663      0.171567
Ti      13.72717      1.94064      6.40914         0.186195     -0.000401     -0.197639
Ti      13.67989     13.64754      6.32369         0.420980     -0.338745      1.155526
Ti       1.91488      2.03044     10.43752         0.545811     -0.246710      1.278658
Ti       1.89500     13.71202     10.54136        -0.043059     -0.687545     -1.324424
Ti      13.55755      1.90877     10.37369         0.152065      0.172375      0.742873
Ti      13.60641     13.57140     10.44272        -0.471937      0.072371      0.893694
Ti       1.91267      5.79252      2.26930         0.364528      0.498032      0.141044
Ti       1.91052      5.78104     14.69705        -0.505127      0.041404     -0.198883
Ti      13.65208      5.86802      2.12628         0.530889      0.507162      1.155340
Ti      13.63245      5.89588     14.62757        -0.271270     -0.070503     -0.002681
Ti       1.93442      5.94614      6.31422        -0.185700     -1.351111      0.485334
Ti      13.67858      5.83443      6.43874        -0.400838      0.089772     -0.994381
Ti       1.92082      5.90732     10.48794         0.116441     -0.546762      0.801426
Ti      13.63054      5.79218     10.40633         1.057626     -0.220268     -1.006936
Ti       2.07694      9.78879      2.27100        -1.527095     -0.596816      0.239816
Ti       1.89572      9.74355     14.62213        -0.545720      0.062021      0.367524
Ti      13.66599      9.82058      2.19940         0.393461     -0.469976      0.210145
Ti      13.54741      9.82623     14.68638         1.747535     -0.651881     -0.265492
Ti       1.87063      9.85934      6.31664         0.464482     -0.121895     -0.086495
Ti      13.61849      9.76639      6.27568         0.188133     -0.442083     -0.381530
Ti       1.94312      9.76993     10.57316        -0.535153      0.355857     -0.803777
Ti      13.61670      9.63152     10.42065        -0.165183      0.378540      0.515761
Ti       5.84098      1.88164      2.30338        -0.069268      0.065408     -1.063770
Ti       5.77275      1.91153     14.66259         0.019725     -0.089810     -0.439176
Ti       5.86048     13.59509      2.19230        -0.760310     -0.492306     -0.320711
Ti       5.80964     13.60371     14.69855         0.461451      0.921573     -0.813775
Ti       5.86997      1.97275      6.44048         0.552554     -1.100181      0.039432
Ti       5.81036     13.59608      6.53990         0.723515      0.832302     -0.038104
Ti       5.85605      1.87534     10.60638        -0.213528      1.201110     -0.785658
Ti       5.81371     13.52600     10.61075         0.050738      0.619146     -1.427486
Ti       5.82508      5.80292      2.27063        -0.715975     -0.517856     -1.650131
Ti       5.71569      5.82358     14.74913        -0.246180     -0.161914     -0.184175
Ti       5.74921      5.81220      6.34190         1.361093      0.497197     -0.811020
Ti       5.85230      5.84153     10.67359        -0.240550     -0.070592     -0.252962
Ti       5.80689      9.62513      2.18953         0.018999      1.009548     -0.620182
Ti       5.79146      9.64613     14.72481         0.148088      0.178319      0.169952
Ti       5.87392      9.73088      6.29298         0.039808     -0.384132      1.181456
Ti       5.77880      9.68151     10.64489         0.892433     -0.203372     -0.487763
Ti       9.82383      1.92578      2.17045        -0.774406      0.152666      0.483838
Ti       9.69309      1.87795     14.74790         0.271179     -0.226896      0.350781
Ti       9.77007     13.68458      2.18059        -1.515291      0.797970     -0.039699
Ti       9.72869     13.66595     14.69210         0.391460     -0.227654     -0.765859
Ti       9.72912      1.89522      6.24979        -0.293103      0.513467      0.455986
Ti       9.62108     13.65980      6.35895         0.280273     -0.449745      1.455351
Ti       9.72463      1.88233     10.48255         0.325390     -0.157540      0.142591
Ti       9.72390     13.63718     10.52128         0.060718     -0.625773      1.096831
Ti       9.81380      5.86047      2.21531        -0.732978     -0.055837     -0.128505
Ti       9.62322      5.74786     14.71066         0.923349     -0.232419      1.170745
Ti       9.69508      5.82550      6.29501         0.756063      0.117316      0.077571
Ti       9.82903      5.80072     10.47676        -1.680089      0.441850     -0.383291
Ti       9.74814      9.75110      2.32128         0.384879     -0.620040     -1.313328
Ti       9.77832      9.71782     14.77321        -0.139673      0.337357     -0.583718
Ti       9.65652      9.71074      6.27888         0.006677      0.324176      0.489214
Ti       9.75200      9.61295     10.65717        -0.467025      0.306830     -1.225120
O       2.10071      1.80433      0.48954        -0.490319      0.199925      0.396427
O       1.95685      2.06640     12.79742        -0.246114     -0.918005      0.848672
O       2.03443     13.52217      0.52835        -0.285454      0.040550     -1.129930
O       1.85945     13.67015     12.83729         0.257317     -0.169920      0.774612
O      13.61637      1.81353      0.37163         0.378551      0.652053      0.647386
O      13.57612      1.85939     12.91292         0.782645      0.059455      0.028387
O      13.69233     13.58434      0.53522        -0.393612      0.248593     -0.525906
O      13.75721     13.80256     13.01552         0.020615      0.007213     -1.493468
O       1.94785      1.77732      4.66680        -0.159218      0.173497      0.072641
O       2.01942     13.72382      4.68564        -0.352891     -0.002072     -0.213614
O      13.76255      2.02001      4.60030        -0.396082     -0.446413     -0.013147
O      13.69441     13.57349      4.57358        -0.497877      0.070579     -0.973007
O       1.90162      1.97836      8.68253         0.297101     -0.241632     -0.735758
O       1.81228     13.60343      8.70576         0.365813      0.063487      0.588903
O      13.65356      1.95632      8.61421        -0.372812     -0.189399     -0.094476
O      13.53675     13.60411      8.69199         0.181789      0.031690     -0.050102
O       1.93756      5.92042      0.48911        -0.226149     -0.459483     -0.457303
O       1.76592      5.89881     12.94141         0.608202     -0.376310      0.105766
O      13.72456      5.95627      0.38422        -0.124225     -0.247764     -0.724135
O      13.45330      5.80704     12.80454         0.647398     -0.260719      0.811587
O       1.97890      5.90193      4.57823         0.046028     -0.267072     -0.824700
O      13.73314      5.85307      4.64038        -0.184113     -0.090840     -0.192043
O       1.85391      5.91704      8.75631         0.207367      0.384259     -0.897016
O      13.78701      5.85888      8.58119        -0.554650     -0.253950      1.479179
O       1.93106      9.88425      0.46968         0.439306     -0.049840     -0.012370
O       2.06131      9.78727     12.83988        -0.222164     -0.113240      0.136464
O      13.72037      9.80391      0.41527        -0.197527      0.211850     -0.915058
O      13.61478      9.70026     12.93076        -0.376092      0.321383     -0.208788
O       1.97792      9.87723      4.53348        -0.188065     -0.594219      0.756889
O      13.68913      9.62113      4.49491        -0.311706      0.489111      0.380627
O       1.92579      9.70563      8.72896         0.057922     -0.125796      0.732138
O      13.68832      9.71803      8.64957        -0.153267     -0.228310      0.551421
O       5.66934      1.83946      0.44450         0.442746      0.581523      1.506405
O       5.70657      1.87174     12.84029         0.135637     -0.316112      0.645001
O       5.86413     13.61824      0.39486        -0.224303      0.166316     -0.108788
O       5.87445     13.71827     12.85431        -0.191125     -0.761570      0.785960
O       5.98224      1.85961      4.69183        -0.351795      0.074372     -0.930185
O       5.94029     13.52729      4.75931        -0.011501      0.252684     -0.535237
O       5.83190      2.09325      8.78187         0.128573     -0.543245      0.586432
O       5.76969     13.50744      8.74483        -0.069174      0.098385      1.002147
O       5.68317      5.79218      0.46046         0.343145     -0.196736      0.320900
O       5.54005      5.80740     12.94197         1.074611      0.147562      0.119441
O       5.81560      5.87021      4.57118        -0.172775     -0.008221      0.073418
O       5.85220      5.63573      8.90662         0.117483      0.822861     -1.230910
O       5.87954      9.71970      0.39542        -0.431762     -0.228896      0.040823
O       5.85729      9.55803     12.95973        -0.142974      0.769894     -1.177563
O       5.76806      9.74059      4.55520         0.260674     -0.105424     -0.681495
O       5.89459      9.64254      8.80799        -0.338214      0.110071      0.646666
O       9.78252      1.93909      0.39424         0.039957     -0.260267     -0.138403
O       9.65435      1.85865     13.01090         0.244348      0.457009     -1.202627
O       9.75467     13.81653      0.41929         0.205579     -0.368207      0.375990
O       9.62015     13.61609     12.89852         0.212287     -0.372705      0.344099
O       9.77863      2.01695      4.49498         0.094180      0.024736     -0.152377
O       9.59795     13.35274      4.62620        -0.231479      0.704446     -1.065970
O       9.77588      1.85540      8.71027        -0.021410     -0.062333      0.479105
O       9.84208     13.70387      8.77647        -0.048935      0.516354     -0.925204
O       9.62230      5.92033      0.46432         0.534716     -0.069908     -0.446214
O       9.77917      5.60099     12.95424        -0.039247      0.409209     -0.210759
O       9.82406      5.77402      4.50487        -0.105046     -0.131521      0.235967
O       9.53760      5.89866      8.69582         0.776087     -0.040492      0.502598
O       9.65555      9.62496      0.50042        -0.447420      0.184926     -0.181779
O       9.78435      9.72150     12.97052        -0.048836      0.260915      0.326212
O       9.63103      9.84614      4.52003         0.264271      0.213970     -0.578989
O       9.56227      9.43225      8.85286         0.657964      0.462997      0.550792
O       3.85891      1.82646      2.68588         0.629680      0.059556     -0.333330
O       3.84575      1.85373     15.06706         0.567616     -0.025828     -0.318456
O       3.91394     13.67173      2.57637         0.238318      0.515750      0.221033
O       3.85568     13.80654     14.83785         0.915915     -0.884746      0.388790
O      15.57929      1.94294      2.48412         0.194958     -0.172084      0.105736
O       0.03564      1.88685     15.01966        -0.041260      0.036131      0.036728
O       0.01373     13.53812      2.60051         0.000373     -0.026320     -0.193388
O      15.57923     13.65358     15.14422         1.142479     -0.203413     -0.110281
O       3.89857      1.95561      6.70906         0.625763     -0.475795      0.334857
O       3.92193     13.60830      6.64614        -0.405755     -0.091019      0.479401
O       0.06047      1.99545      6.70469        -0.284835     -0.025486      0.118408
O      15.52386     13.41817      6.62434         0.549212      0.375309      0.181187
O       3.85038      1.93808     10.73232         0.315103     -0.433288      0.015250
O       3.82169     13.52878     10.75108         0.053602      0.352911      0.760480
O      15.56786      1.92108     10.65165        -0.066611      0.421521      0.428283
O      15.57980     13.59978     10.77539        -0.820559      0.035519      0.162694
O       3.86829      5.71103      2.61710        -0.033314      0.280929     -0.009431
O       3.79463      5.83958     15.07581        -0.313497      0.186556     -0.068497
O       0.02582      5.84592      2.52128        -0.372223     -0.132885      0.073742
O      15.55472      5.83051     15.03707         0.223009     -0.069370      0.056844
O       3.90477      5.90901      6.68488         0.010995      0.328820      0.230914
O       0.04654      5.80971      6.59826         0.230168      0.107171      0.296271
O       3.88178      5.90832     10.77249        -0.612919      0.315234      0.153893
O      15.51772      5.75451     10.84175         0.490806      0.108814     -0.124214
O       3.91595      9.64852      2.61294         0.066763      0.116452     -0.300855
O       3.89084      9.68385     14.96012        -0.759792      0.285165      0.376224
O      15.54987      9.71787      2.40399         1.135720      0.450630      0.644766
O       0.00406      9.98944     14.81232         0.107974     -0.360222      0.628095
O       3.93944      9.78248      6.61717        -0.578461     -0.461690      0.344500
O      15.55739      9.81564      6.57959         0.748537     -0.250030      0.113319
O       3.89095      9.54922     10.82059        -0.215192      0.362707     -0.107792
O      15.52180      9.73513     10.93381         0.397779     -0.295404     -0.599838
O       7.89909      2.07368      2.43789        -1.656631     -0.282370      0.174831
O       7.68609      2.00893     15.03487         0.050337     -0.172651     -0.008549
O       7.73991     13.72297      2.54918         0.585453     -0.454622     -0.122541
O       7.86924     13.62001     15.05056        -1.411578     -0.618040     -0.046006
O       7.81671      2.00306      6.69284        -0.297083     -0.144281      0.101880
O       7.74685     13.64280      6.98878         0.878583      0.047041     -0.824740
O       7.80978      1.94665     10.93113        -0.492813     -0.009993     -0.508673
O       7.71716     13.57688     10.73686         0.433000     -0.138274      0.192826
O       7.75808      5.94915      2.48677         0.179821     -1.109255      0.337741
O       7.74538      5.82151     14.95004        -0.249296     -0.038371     -0.203927
O       7.82649      5.75898      6.48401        -0.730781      0.094256      0.513614
O       7.79363      5.84636     10.90922         0.207073     -0.433024      0.192271
O       7.64240      9.59302      2.57624         0.947990      0.748002     -0.351893
O       7.76436      9.65429     14.94796         0.930720      0.443188      0.288718
O       7.77565      9.81270      6.66190         0.566604     -0.357955     -0.088107
O       7.78355      9.69210     10.91328         0.316491      0.367071      0.629477
O      11.74663      1.81906      2.50938         0.464752      0.413240      0.062382
O      11.71652      1.85382     15.02303        -0.472444      0.234897     -0.117730
O      11.63686     13.70861      2.61298         0.069766     -0.048723     -0.239078
O      11.70977     13.83438     15.00110        -0.308739     -0.657663      0.271034
O      11.71718      1.82239      6.62177         0.296291      0.334523     -0.057655
O      11.66674     13.59815      6.58050        -0.079565      0.572197     -0.059183
O      11.70071      1.78366     10.85145        -0.751004      0.513025     -0.438197
O      11.72426     13.72481     10.90583         0.043520     -0.155137     -0.149853
O      11.76167      5.99272      2.56435        -0.537994     -0.634446     -0.452695
O      11.68519      5.89824     14.99330        -0.090796     -0.618510      0.032476
O      11.69456      5.82139      6.65236        -0.219017     -0.195776      0.253158
O      11.69620      5.84442     10.79199        -0.314091     -0.299884     -0.443590
O      11.63195      9.67348      2.35125        -0.221955      0.274332      0.751715
O      11.72483      9.86311     15.09078        -1.130817     -0.669772      0.015701
O      11.68186      9.77690      6.59858        -0.554969     -0.497917     -0.042272
O      11.73177      9.71168     10.86513        -0.566369     -0.459454     -0.260688
O       1.89590      3.78864      2.65738         0.174316      0.313373     -0.589710
O       1.89507      3.78409     14.95249         0.121993      1.176964      0.721966
O       1.81605     15.51058      2.60500         0.489403      0.296928     -0.323859
O       1.98160     15.59393     15.05706        -0.658656     -0.662318     -0.156243
O      13.65761      3.93143      2.41371        -0.036572     -0.640867      0.094368
O      13.69763      3.87560     14.96863        -0.076833      0.055262      0.134374
O      13.72261     15.57732      2.56164        -0.210167      0.003846      0.129402
O      13.68433      0.02584     15.07707         0.314943     -0.327551      0.162152
O       2.08450      3.92138      6.74904        -0.523093      0.136215     -0.395240
O       1.92097     15.55489      6.81320         0.141465      0.570333     -0.056143
O      13.72840      3.88774      6.67581        -0.445694     -0.547557      0.136457
O      13.90045     15.57451      6.62050        -0.985398     -0.089172     -0.126315
O       2.05187      3.92992     10.73794        -0.902395      0.150998     -0.086629
O       1.93910      0.00141     10.69494        -0.000133      0.026018      0.185163
O      13.52297      3.86540     10.75766         0.114283     -0.430165     -0.134888
O      13.67397      0.01788     10.78743         0.119567     -0.716030     -0.097561
O       2.01477      7.79141      2.53205        -0.096833      0.196874      0.148755
O       1.82212      7.83841     14.97399         0.325451      0.048097      0.108869
O      13.71051      7.78244      2.47122        -0.160030      0.121854      0.211341
O      13.63272      7.79713     14.81812         0.085094      0.205806      0.694171
O       1.91487      7.80196      6.53827         0.301894      1.061062      0.373832
O      13.63786      7.77800      6.68676         0.166225      0.621038     -0.183811
O       1.87749      7.78344     11.04506        -0.132801      0.107742     -1.127587
O      13.62541      7.68634     10.76526        -0.011816      0.869467     -0.019734
O       2.15435     11.68592      2.78223        -0.968748      0.208245     -1.113363
O       2.07869     11.72030     14.93608        -0.043086      0.253527      0.041611
O      13.63051     11.71034      2.56601        -0.433782      0.157464     -0.018201
O      13.53761     11.78688     14.90745         0.064532     -0.523749      0.507672
O       1.94118     11.70762      6.70808         0.305603     -0.536640     -0.022898
O      13.55952     11.62149      6.77051         0.242118      0.491411     -0.758481
O       1.90879     11.63094     10.85925         0.221100     -0.213379      0.001238
O      13.54614     11.63460     10.90107         0.416022      0.603036     -0.541377
O       5.84724      3.83478      2.68884        -0.130134     -0.261217     -0.544882
O       5.66311      3.87607     14.90598         0.354037     -0.296164      0.587090
O       5.88917     15.56761      2.61520        -0.156025      0.653973     -0.140279
O       5.95102     15.54307     15.03742        -0.501473      0.061764     -0.193974
O       5.72833      3.92712      6.64032         0.460871      0.067411      0.139999
O       5.83289     15.59876      6.84484        -0.018568      0.101412      0.078793
O       5.74714      3.87212     10.98022         0.697420     -0.013832     -0.217099
O       5.73324     15.53650     10.77898         0.291310      0.667610     -0.274105
O       5.79271      7.68594      2.50329        -0.658358      0.901519      0.190936
O       5.71343      7.77299     14.92796         0.306297     -0.848849      0.694394
O       5.90975      7.81027      6.72888        -0.352197     -0.617471     -0.122913
O       6.04102      7.75886     10.95848        -0.962205      0.079958     -0.458027
O       5.73762     11.66630      2.38446         0.470001     -0.031080      0.646945
O       5.78184     11.63969     14.94687         0.128337      0.958052     -0.174673
O       5.89856     11.62020      6.77570        -0.429264      0.218306     -0.188782
O       5.77243     11.63893     10.89634         0.101043     -0.646929      0.454390
O       9.87314      3.91267      2.47431        -0.017742      0.394999      0.016425
O       9.69191      3.82983     15.17273         0.045083      0.929585     -0.640556
O       9.65786      0.06143      2.58344         0.397651     -1.308320     -0.074270
O       9.62524     15.58631     14.93368         0.019455      0.042128      0.470395
O       9.73376      3.84424      6.64594         0.595937      0.583098      0.057821
O       9.69629      0.01539      6.43835        -0.034499     -1.221267      0.640357
O       9.76704      3.86655     10.81068         0.072218     -0.146159     -0.158071
O       9.62690     15.53522     10.87005         0.117239      0.914621     -0.224061
O       9.69163      7.74698      2.60788         0.120324      0.879533      0.063285
O       9.77427      7.75791     15.13946        -0.104412      0.315713     -1.032522
O       9.82518      7.84475      6.52089        -0.434785     -0.573422      0.104668
O       9.70672      7.67138     11.03973         0.260763      0.410974     -0.372829
O       9.54356     11.72546      2.34741         0.544961     -0.032135      0.435893
O       9.78999     11.69449     15.19135        -0.112205     -0.476639     -0.553905
O       9.76435     11.76734      6.78126        -0.572270     -1.148323     -0.388282
O       9.80581     11.68162     10.76807        -0.193503     -0.578588      0.538604
