  # total energy = -7880.58061223 
CRSYTAL
PRIMVEC
    15.6080000000000005    0.0000000000000000    0.0000000000000000
     0.0000000000000000   15.6080000000000005    0.0000000000000000
     0.0000000000000000    0.0000000000000000   16.6239999999999988
PRESSURE
-0.94947 -1.22931 -1.95334 0.218503 -0.433239 -0.033018
PRIMCOORD
320 1
Pb       3.74914      3.83266      4.16085        -0.063216     -0.098802     -0.232594
Pb       3.75464      3.74995     16.52715         0.536100      0.413314      0.427318
Pb       3.92003     15.45083      4.27226        -0.179309      0.084583     -0.535844
Pb       4.01424      0.00730      0.02095        -0.308233     -0.100760     -0.507993
Pb       0.02431      3.93464      4.16440        -0.218722     -0.121969     -0.472414
Pb       0.00831      3.93301      0.01588         0.073949     -0.122438     -0.187941
Pb       0.06098     15.55830      4.30396         0.074556     -0.039231     -0.616314
Pb      15.59933     15.58899      0.00759        -0.119510     -0.145669     -0.108403
Pb       4.06308      3.99144      8.26349        -0.232592     -0.010082     -0.525534
Pb       3.88906     15.48052      8.35392        -0.303948      0.401672     -0.831553
Pb       0.06414      3.93340      8.28307         0.251462     -0.051910     -0.183802
Pb      15.54434     15.59591      8.38586         0.215092     -0.232007     -0.666561
Pb       3.93371      3.78869     12.36646        -0.175702      0.674175      0.155091
Pb       3.97008      0.15262     12.41979        -0.252012     -0.176310      0.345550
Pb      15.54516      3.94365     12.47243        -0.079083     -0.319168     -0.441134
Pb      15.58098     15.46792     12.30092        -0.512670      0.700938      0.699368
Pb       3.97465      7.68698      4.12258        -0.285449      0.376985     -0.227390
Pb       3.88755      7.85084      0.05146         0.045818      0.080585     -0.479866
Pb      15.46622      7.71314      4.14924        -0.214251      0.237619     -0.397948
Pb      15.59873      7.76735      0.01413        -0.008329     -0.172347     -0.095748
Pb       3.82939      7.82724      8.30315         0.355883     -0.369335     -0.091047
Pb       0.10577      7.81334      8.11421        -0.515593     -0.127438      0.542991
Pb       3.80102      7.77077     12.42702         0.345831     -0.381231     -0.224735
Pb       0.03220      7.74029     12.37065        -0.437735     -0.026285      0.166167
Pb       3.95907     11.59879      4.26441        -0.049790      0.297078     -0.478655
Pb       3.88309     11.68307      0.05720        -0.138063     -0.179580     -0.544479
Pb       0.05975     11.62044      4.20080        -0.854873      0.446128     -0.132506
Pb       0.00080     11.55580     16.54088        -0.084131      0.483509      0.310031
Pb       3.91599     11.57437      8.42127        -0.114050      0.244187     -0.686166
Pb       0.05045     11.73429      8.35707        -0.547210      0.211932     -0.156117
Pb       3.77768     11.68263     12.55049         0.082749      0.038796     -0.261772
Pb      15.39159     11.83412     12.50501         0.434623     -0.357911     -0.273357
Pb       7.88501      4.02092      4.11900        -0.377877     -0.274588     -0.327015
Pb       7.80050      3.77048      0.09313        -0.058282      0.313712     -0.374072
Pb       7.91470      0.05806      4.21400        -0.348095     -0.549314     -0.281548
Pb       7.80826     15.48892     16.54704         0.098254     -0.231063     -0.215654
Pb       7.91729      3.87338      8.14678        -0.199204      0.409803     -0.088289
Pb       7.69942      0.01742      8.25949         0.138781     -0.313008     -0.002522
Pb       7.82429      3.97840     12.56955         0.430175      0.185869     -0.717435
Pb       7.75615     15.60673     12.35903         0.498014      0.135471      0.217902
Pb       7.87207      7.77196      4.18444        -0.287869      0.223288     -0.494992
Pb       7.75852      7.56937      0.09141         0.082730      0.881105     -0.678789
Pb       7.69420      7.74283      8.32740         0.368589     -0.063766     -0.239975
Pb       7.64366      7.98547     12.55055         0.232721     -0.379978      0.045804
Pb       7.78836     11.61321      4.15791         0.016716      0.389533     -0.185721
Pb       7.88381     11.63339      0.06201        -0.528286     -0.059720     -0.835582
Pb       7.89190     11.59631      8.45416        -0.154255      0.104054     -0.413235
Pb       7.74311     11.83732     12.48733         0.269363     -0.074486      0.280225
Pb      11.56886      3.89936      3.93757         0.531219     -0.082185      0.187261
Pb      11.61286      3.69825     16.56651         0.477779      0.131998      0.022041
Pb      11.89961      0.05238      4.15967        -0.459113     -0.026063     -0.187244
Pb      11.78885     15.59656     16.58947        -0.306409      0.041162     -0.121349
Pb      11.67547      3.69960      8.16281        -0.194118      0.583644      0.396032
Pb      11.82703     15.49482      8.36019         0.021911     -0.217816     -0.323751
Pb      11.53885      3.94883     12.32959         0.507426      0.138402      0.323222
Pb      11.65131      0.08892     12.55949         0.043313     -0.402865     -0.034176
Pb      11.65208      8.09485      4.22135         0.526018     -0.520348     -0.411847
Pb      11.78568      7.74149     16.58260        -0.044791      0.196152     -0.003616
Pb      11.71097      7.68754      8.35270         0.014572      0.390649     -0.338681
Pb      11.85267      7.66748     12.42628        -0.329299      0.506753      0.206756
Pb      11.66267     12.00039      4.08412         0.358472     -0.930370      0.111341
Pb      11.55801     11.68052      0.06697         0.552947      0.145578     -0.614625
Pb      11.52481     11.55840      8.21857         0.415129      0.408468      0.532132
Pb      11.68345     11.54060     12.54696        -0.267090      0.181823     -0.231561
Ti       1.90222      1.90172      2.18815        -0.665554      0.190279      0.383922
Ti       1.83497      1.85780     14.62879         0.254093      0.468152     -0.174472
Ti       1.92649     13.60590      2.21088        -0.410416      0.453048      0.232700
Ti       1.92804     13.60863     14.61062        -0.628704     -0.029324      0.553782
Ti      13.63465      1.94045      2.17622         0.018009      0.227203     -0.367930
Ti      13.54951      1.97048     14.54846        -0.189415      0.054488      1.341040
Ti      13.72777     13.70568      2.16731         0.319385     -0.956975     -0.146407
Ti      13.61990     13.62999     14.70997        -0.388730     -0.220012     -0.220500
Ti       1.84831      1.96856      6.38073         0.855283     -0.386848      0.311223
Ti       1.89943     13.58311      6.35547         0.214976      1.051903      0.681431
Ti      13.63657      2.01014      6.29007         0.896672     -0.901445     -0.138483
Ti      13.64729     13.65857      6.37573         0.005234     -0.599249     -0.373387
Ti       1.94631      1.92383     10.52415        -0.550178     -0.073729      0.065335
Ti       1.99543     13.64907     10.52813        -1.576442     -0.409685      0.742671
Ti      13.56786      1.98055     10.51219         1.047128     -0.483588      0.696957
Ti      13.53843     13.51887     10.55982         0.287395      1.107367     -0.572064
Ti       1.94556      5.92519      2.17285        -1.287343     -0.900687      0.298931
Ti       2.04421      5.74060     14.56577         0.085813      1.010119     -0.202295
Ti      13.52946      5.88175      2.17294         0.621096      0.225253     -0.326933
Ti      13.69125      5.82691     14.63427        -0.697070     -0.186204      0.248611
Ti       1.91220      5.87348      6.22143         1.360593     -0.862939      0.451271
Ti      13.64933      5.78192      6.28244         0.543878      1.122782     -0.664165
Ti       1.96386      5.73004     10.50874         0.179123      0.221693     -0.322964
Ti      13.60640      5.84535     10.36375         0.338435     -0.717992      0.563156
Ti       1.84060      9.76682      2.29478         0.638285     -0.395682     -0.626141
Ti       1.94513      9.67646     14.65295        -0.034474      0.062686      0.960845
Ti      13.61768      9.75622      2.26537        -1.106720      0.417431     -0.098753
Ti      13.65622      9.67368     14.69619        -0.336435      0.194601      0.165023
Ti       1.86576      9.77841      6.28867         0.403837      0.063345     -0.376769
Ti      13.60774      9.75844      6.41705        -0.257010     -0.054336     -0.399046
Ti       1.89629      9.71762     10.59583        -0.747718      0.960372     -0.938932
Ti      13.64616      9.66967     10.39399        -0.538624      0.813481      0.180366
Ti       5.78874      1.94014      2.21532         0.100846     -0.143215      0.156033
Ti       5.86378      2.01770     14.60731        -1.127879     -0.286434     -0.019629
Ti       5.80576     13.64787      2.22493         0.547159     -0.402879      0.012569
Ti       5.77358     13.61600     14.63191         0.674151     -0.008599      0.058560
Ti       5.72905      1.90059      6.26038        -0.030150      0.619046      1.144928
Ti       5.81175     13.62496      6.38758         0.112676     -0.414843      1.547428
Ti       5.86951      2.05867     10.44516         0.341641      0.063681     -0.426279
Ti       5.78280     13.74824     10.57426         0.948947     -0.456057      0.064829
Ti       5.81371      5.87157      2.13188         0.057718     -0.215529     -0.894924
Ti       5.90744      5.90499     14.59716        -0.379467     -0.146362      1.419679
Ti       5.88970      5.93665      6.28584        -0.142038     -0.911631      1.240511
Ti       5.89119      5.89818     10.45578        -0.611996      0.378575      0.142189
Ti       5.78769      9.73443      2.21811         0.270635      0.138271     -1.359309
Ti       5.83346      9.73101     14.72204         0.659325      0.836323      0.764695
Ti       5.77395      9.82176      6.30917         0.516887      0.168426      0.884153
Ti       5.73397      9.85068     10.59718         0.204535     -0.921265     -0.745823
Ti       9.65848      1.87677      2.17601         0.339695      0.340216      0.117342
Ti       9.64217      1.90767     14.65652         0.999190     -0.232181     -0.169915
Ti       9.68960     13.67672      2.20451        -0.094414      0.134575     -0.406200
Ti       9.79264     13.65517     14.64559        -0.526556     -0.090427     -0.041447
Ti       9.74477      1.75405      6.36735        -0.210706      0.872443     -0.946403
Ti       9.72443     13.58337      6.30644        -0.617276      0.408619     -0.229728
Ti       9.77344      1.97815     10.43790        -1.209133      0.045584     -0.653123
Ti       9.78979     13.64465     10.50860        -1.198819     -0.476502     -0.297776
Ti       9.74529      5.92325      2.11889         0.476601     -0.606237      0.306152
Ti       9.81244      5.82423     14.62412        -1.301565      0.665977     -0.721933
Ti       9.91893      5.81389      6.28892        -1.901153      0.085614      1.195901
Ti       9.68169      5.96375     10.45904         0.031830     -1.180146     -1.072810
Ti       9.72797      9.75069      2.15061        -0.195993      0.372926      0.677369
Ti       9.75880      9.69082     14.64043        -0.392199     -0.469954      0.278076
Ti       9.67466      9.68848      6.31817        -0.056981      0.740623      0.886054
Ti       9.64618      9.74591     10.61938         1.338316      0.686556     -1.238278
O       1.92619      2.03012      0.39389        -0.518986     -0.114314     -0.368742
O       1.96727      2.04637     12.83852        -0.099427     -0.333048      1.184532
O       1.83432     13.60535      0.46081         0.056663      0.151639     -0.680250
O       1.82520     13.65204     12.80553         0.652402     -0.348695      1.023778
O      13.46762      1.83751      0.35688         0.425165      0.556052      0.814245
O      13.46024      2.13277     12.82724         0.119327     -0.317356     -1.222991
O      13.75257     13.73016      0.33118        -0.359713     -0.119707      0.734271
O      13.48635     13.50848     12.90649         0.142715      0.062143     -0.151148
O       1.79757      1.98690      4.59515         0.259825     -0.182937     -0.339484
O       1.79468     13.61952      4.57296         0.288570      0.079772     -0.152208
O      13.68431      1.89737      4.51477        -0.330602     -0.006684     -0.731881
O      13.56515     13.57227      4.54234         0.289488      0.802597      0.735191
O       1.78774      1.87505      8.76002         0.160519      0.079034     -0.558228
O       1.83515     13.69379      8.76843        -0.002051      0.049168     -0.219140
O      13.55633      1.83911      8.70997         0.038745      0.305665      0.346549
O      13.64787     13.66809      8.74456        -0.145430      0.271404      0.255466
O       1.97606      5.79068      0.37815        -0.051628      0.146156     -0.106025
O       1.93418      5.81207     12.71131        -0.035724     -0.063651      1.355869
O      13.43920      5.98645      0.35474         0.330342     -0.763685      0.170665
O      13.60618      5.84447     12.82518         0.240694      0.287760     -0.053739
O       2.04216      5.72712      4.42127        -0.454463      0.816373      1.008422
O      13.83498      5.91575      4.48831        -0.775591     -0.198243     -0.035408
O       1.85557      5.86628      8.69326         0.161707     -0.120191      0.352467
O      13.68386      5.83117      8.59783         0.075751     -0.391208     -0.013288
O       1.92331      9.72134      0.51506        -0.307487      0.060430     -0.498126
O       1.95675      9.73992     12.88968        -0.307411      0.005645     -0.580285
O      13.49275      9.75155      0.46980        -0.163894      0.091814     -0.187822
O      13.79392      9.45692     12.94833        -0.150117      0.412968     -0.747538
O       1.82719      9.83869      4.48352         0.365761     -0.054938      0.685568
O      13.51114      9.61015      4.59025         0.426496      0.165650      0.479595
O       1.91088      9.62881      8.76053         0.066856      0.581344      0.096419
O      13.64071      9.69984      8.61309         0.011157      0.032271      0.260938
O       5.82304      1.80810      0.43343        -0.182244      0.251208     -0.084633
O       5.64696      2.08219     12.76893         1.057315     -0.175792      1.257862
O       5.85756     13.66728      0.42908        -0.168511      0.116679      0.012684
O       5.74153     13.63360     12.83195        -0.260861     -0.017525      0.080054
O       5.69123      2.02501      4.51186         0.136533     -0.364539     -0.818918
O       5.70135     13.46937      4.69153        -0.645159      0.326543     -2.544421
O       5.82639      1.97022      8.65169         0.120664     -0.085708      0.321125
O       5.97749     13.89697      8.79594        -0.564651     -0.597246      0.179606
O       5.72296      6.07338      0.25295         0.465792     -0.533099      2.120245
O       5.89411      5.86167     12.83138         0.400466     -0.080991     -0.556444
O       5.97184      6.07593      4.50775        -0.316352     -0.572824      0.061435
O       5.72861      5.95720      8.68411         0.268566     -0.058874     -0.514775
O       5.83308      9.67874      0.35882        -0.295459      0.280420      0.939284
O       5.94763      9.75873     12.91526        -0.563919      0.063084     -1.033800
O       5.75530      9.88719      4.52077        -0.208366     -0.366134      0.194347
O       5.52713      9.82700      8.79781         0.626172     -0.117726      0.147692
O       9.63929      2.04838      0.35647        -0.027966      0.073932      0.136227
O       9.65268      1.82112     12.89288        -0.027833      0.405073     -1.462124
O       9.65163     13.71766      0.36697        -0.237155     -0.609729      0.751850
O       9.87847     13.65353     12.87941         0.003199      0.202014     -0.488696
O       9.71243      1.70188      4.49668         0.100883      0.470034      0.800005
O       9.68309     13.79165      4.47651         0.349204      0.116303      0.569551
O       9.82529      2.06088      8.54774        -0.011927     -0.185651      1.135868
O       9.48987     13.48049      8.68630         0.464946      0.166701      0.268489
O       9.67066      5.65419      0.35869         0.306903      0.421806     -0.617608
O       9.53022      5.93165     12.78229         0.410105     -0.274561      0.251841
O       9.61332      6.08652      4.55723         0.298464     -0.588845     -0.095126
O       9.75602      5.76822      8.62732         0.470323      0.132095      0.295053
O       9.71406      9.91459      0.34639         0.401223     -0.076454      0.606983
O       9.64489      9.52063     12.84555        -0.112630      0.369515     -0.614351
O       9.63733      9.73530      4.54042         0.170393     -0.468612     -0.149530
O       9.67938      9.95567      8.71567         0.097381     -0.023986      0.547052
O       3.74311      2.03990      2.42272         1.470931     -0.004071      0.379299
O       3.85213      1.98965     15.01354         0.153142     -0.490330     -0.318622
O       3.82910     13.67025      2.49984         0.331754     -0.212124      0.339288
O       3.74207     13.64193     15.07373         0.672967     -0.042090     -0.463258
O      15.49333      1.96059      2.39636        -0.090157      0.317970     -0.061943
O      15.44200      1.98016     14.94530         1.296314      0.336766     -0.030041
O       0.00447     13.79248      2.49195        -1.241328     -0.493446      0.227969
O      15.50409     13.50270     14.87807         0.849984      0.557113      0.133744
O       3.85644      1.98148      6.64472         0.020831     -0.137517     -0.029751
O       3.80347     13.60585      6.70766        -0.167235      0.176275      0.195395
O      15.58462      2.07624      6.63502         0.238567     -0.390516      0.460365
O      15.51131     13.70814      6.75794         0.596464     -0.520010     -0.202511
O       3.92590      2.01861     10.78753        -0.403059     -0.604583     -0.276880
O       3.81996     13.71951     10.73946         1.130617      0.052923      0.144810
O      15.51513      1.87841     10.91412        -0.412580      0.358678     -0.512376
O      15.53960     13.66503     10.85829        -0.153831      0.085196     -0.107610
O       3.85704      5.88640      2.52620         0.934738      0.338415     -0.270272
O       3.91578      5.83433     14.82791        -0.726808     -0.067578     -0.082552
O      15.54311      5.92988      2.28999        -0.295363     -0.226226      0.477843
O      15.55869      5.83694     14.83672         0.428701     -0.465177      0.411584
O       3.90058      5.83250      6.70425         0.162588      0.610177     -0.767135
O       0.05775      5.81151      6.41355         0.058627      0.309979      0.797726
O       3.90659      5.87487     10.79002        -1.078708      0.201990      0.030831
O       0.01291      5.67320     10.77556        -0.548217      0.525641     -0.003227
O       3.79799      9.65766      2.40986         0.659183      0.205640      0.694698
O       3.87098      9.79431     15.07591        -0.521547     -0.372960     -0.368049
O      15.45172      9.72864      2.48063         0.886572      0.086929      0.354988
O      15.56769      9.64834     15.20085         0.658964      0.179533     -0.854774
O       3.82956      9.98344      6.59015        -0.294201     -0.743868     -0.093101
O      15.55154      9.69581      6.46931         0.975205     -0.229773      0.743297
O       3.81281      9.78003     10.91355         0.196452      0.061634      0.276615
O      15.46929      9.78426     10.75329         1.291799     -0.263413      0.320803
O       7.70357      2.04351      2.42406         0.136470     -0.087420      0.454994
O       7.72010      1.89513     14.97217        -0.632514      0.034629     -0.135403
O       7.69299     13.68937      2.63716         0.276895     -0.191882     -0.448384
O       7.81719     13.57748     14.85993        -0.884772      0.316128      0.223609
O       7.78489      1.78393      6.57659         0.160318      0.388594     -0.128269
O       7.68306     13.66430      6.44282         1.411280      0.571177      0.713009
O       7.80522      1.94766     10.73554        -0.123606      0.133523      0.035653
O       7.79611     13.67777     11.04402        -1.032320     -0.279657     -0.660674
O       7.84365      5.86353      2.45387        -0.991760      0.249269     -0.111105
O       7.78568      5.95787     14.98497        -0.527467     -0.577246     -0.178397
O       7.85019      5.90562      6.82178        -0.946242      0.160570     -0.943319
O       7.77960      5.85010     10.55595         0.101293      0.116662      0.529840
O       7.69443      9.81076      2.49629         1.538756     -0.216894     -0.079384
O       7.74099      9.84693     14.98283         0.274312      0.020896      0.068317
O       7.74132      9.87568      6.57122        -0.111708     -0.245548      0.326844
O       7.79597      9.84313     10.66477        -1.343620     -0.351757      0.603368
O      11.59844      1.91172      2.43978        -0.025935     -0.009187      0.387582
O      11.60523      1.91777     14.91718        -0.289005      0.132662      0.335171
O      11.62927     13.74022      2.38248        -0.086995     -0.106448      0.227582
O      11.66409     13.71287     15.09674         0.300522     -0.553173      0.036322
O      11.79141      1.94159      6.58748        -1.335926     -0.020792     -0.015083
O      11.68265     13.61816      6.62205         0.024854      0.360336      0.255731
O      11.61325      1.93214     10.82981        -0.015232      0.000189     -0.224822
O      11.61618     13.59184     10.62405         0.481358     -0.024105      0.240938
O      11.65071      5.96150      2.50694        -0.835986     -0.600333      0.257020
O      11.62482      6.00181     14.68094         0.003321     -0.205758      0.586767
O      11.76392      5.72899      6.52988        -0.623866      0.438030      0.078144
O      11.69016      5.86189     10.67647         0.218644      0.040980      0.384854
O      11.63443      9.87134      2.70029        -1.125838     -0.307923     -0.929085
O      11.70364      9.62716     14.70913        -0.678683      0.186794      0.719711
O      11.69989      9.81690      6.72499        -0.938760     -0.692916     -0.514989
O      11.68830      9.89051     10.83428         0.252757     -0.980331     -0.094011
O       1.78053      3.93261      2.58876         0.504761     -0.154928     -0.591216
O       1.96436      3.86596     14.96738        -0.689690      0.400002     -0.101846
O       1.80164      0.03540      2.58810         0.625436      0.031716     -0.193704
O       1.86396     15.60533     15.05325        -0.183976     -0.143693     -0.594428
O      13.40340      3.94255      2.39405         0.603054     -0.640471     -0.005528
O      13.35139      3.92198     14.91179         0.952605      0.495514      0.388728
O      13.61543     15.58003      2.48762        -0.199358      0.466559      0.149904
O      13.49618      0.02982     14.85385         0.477071     -0.563526     -0.081740
O       2.02811      3.90802      6.56871        -0.542616      0.327526      0.406573
O       1.88953     15.51079      6.69208        -0.124252      1.267919     -0.178862
O      13.75101      3.90133      6.43036        -0.314186      0.039211      0.946074
O      13.78082      0.04630      6.59255        -0.770986     -0.716017      0.266992
O       1.98592      3.79988     10.76439        -0.335216      1.420478     -0.070050
O       1.95128      0.08069     11.04435         0.072584     -1.026225     -1.067785
O      13.54083      3.90632     10.72387         0.110591     -0.528190     -0.109225
O      13.44401     15.53243     11.04857         0.564765      0.591900     -1.012452
O       1.76096      7.83132      2.58756         0.740084     -0.625966     -0.224654
O       1.93692      7.76851     14.89040         0.023186     -0.389405      0.121211
O      13.41517      7.82226      2.46900         0.633181      0.263350      0.348005
O      13.59842      7.76228     15.11134         0.392070     -0.410190     -0.391543
O       2.02572      7.83887      6.58765        -0.297321     -0.173513     -0.351596
O      13.62426      7.70083      6.73447        -0.008502      0.366488     -0.346299
O       1.85389      7.86942     10.83512         0.284202     -1.175280      0.143072
O      13.61963      7.77384     10.64365         0.064491     -0.494835      0.319560
O       1.76196     11.71733      2.55883         0.386633     -0.302179     -0.209918
O       1.93783     11.62442     15.01684        -0.316096      0.635575     -0.286168
O      13.55474     11.73211      2.63869         0.389407      0.504527     -0.804042
O      13.57864     11.59202     14.88958        -0.018933      0.521479      0.410048
O       1.81930     11.71870      6.68183        -0.326558     -0.898888      0.106848
O      13.72199     11.64719      6.71312        -0.090495      0.561455     -0.252480
O       1.86154     11.72149     10.82903         0.335837      0.062518      0.002426
O      13.64259     11.67546     10.83215        -0.088071     -0.114169      0.145798
O       5.90210      3.98889      2.44606        -0.504326     -0.125636     -0.158882
O       5.89551      3.88720     15.05757        -0.050425     -0.167722     -0.641737
O       5.71432     15.56791      2.56989        -0.048445      0.745287      0.095028
O       5.68693     15.52990     14.82779         0.302953      1.056408      0.542566
O       5.84374      3.98581      6.56703         0.256131     -0.395307      0.057173
O       5.66328     15.60397      6.61753         0.246141      0.118286     -0.111403
O       5.76724      3.99561     10.69540         0.370137     -1.109150      0.221185
O       5.80007      0.07100     10.84432         0.040459     -0.275335      0.069303
O       5.93702      7.81742      2.51527        -0.728679     -0.451519      0.055400
O       5.81604      7.86652     14.88299        -0.043365     -0.966927     -0.154273
O       5.79878      7.89802      6.64029        -0.108470     -0.029858     -0.021191
O       5.79045      7.83600     10.71390         0.175189      0.645058      0.789351
O       5.86048     11.63872      2.54864        -0.850271      0.940759     -0.303580
O       5.68895     11.75221     14.92830        -0.000659     -0.251703      0.333133
O       5.73801     11.73153      6.79362         0.208018     -0.374262      0.098203
O       5.71866     11.74837     10.82943         0.166531      0.228562     -0.035287
O       9.71085      3.96522      2.54706        -0.027299     -0.555604      0.193159
O       9.62259      3.85260     14.69663         0.075123      1.123571      0.702743
O       9.53050      0.04645      2.34457         0.070113     -0.571273      0.092113
O       9.70937      0.03051     14.90371        -0.269838     -0.893340      0.608643
O       9.71670      3.90984      6.43653         0.100246     -0.186968      0.160451
O       9.83730     15.57763      6.73396        -0.213309     -0.339879     -0.018004
O       9.73905      3.91866     10.74072        -0.158041     -0.915193      0.386490
O       9.64257     15.52834     10.69367         0.402925      1.274465      0.003762
O       9.72079      7.82480      2.36975        -0.198453      0.911640     -0.075760
O       9.63157      7.81465     15.05251         0.125569     -0.259226      0.021795
O       9.69638      7.89692      6.79341         0.526183     -0.994664     -0.498680
O       9.79474      7.78112     10.56800        -0.194616      1.096064      0.354986
O       9.69769     11.73088      2.52231        -0.234479      0.321558     -0.443799
O       9.79782     11.68287     14.83090         0.242452     -0.202298      0.602520
O       9.72834     11.74730      6.45247         0.012060     -0.396169      0.561652
O       9.70169     11.67624     10.94238        -0.159425      0.171146      0.141778
