  # total energy = -7883.63152385 
CRSYTAL
PRIMVEC
    15.6080000000000005    0.0000000000000000    0.0000000000000000
     0.0000000000000000   15.6080000000000005    0.0000000000000000
     0.0000000000000000    0.0000000000000000   16.6239999999999988
PRESSURE
-0.787743 -0.888259 -1.07564 -0.223096 0.466155 0.004625
PRIMCOORD
320 1
Pb       3.93115      3.80651      4.12644        -0.108310      0.458487      0.286128
Pb       3.83790      3.83305      0.04838         0.386547      0.324713     -0.481034
Pb       3.91658     15.57998      4.15993        -0.178650     -0.046138      0.368733
Pb       3.84908     15.52630      0.00357         0.427268      0.334283     -0.094880
Pb      15.46279      3.83833      4.10396         0.884841      0.163009      0.466720
Pb      15.57211      3.85785     16.56837        -0.066632      0.000444      0.166056
Pb       0.05765     15.59282      4.11865         0.214307     -0.033809      0.190519
Pb       0.07785     15.58935      0.00584        -0.727753     -0.377529     -0.168438
Pb       3.92148      3.92088      8.32450        -0.016936      0.206122     -0.065876
Pb       3.95851      0.15701      8.39611         0.169182     -0.368772     -0.228588
Pb      15.57734      3.92468      8.23066         0.657855      0.029297      0.069481
Pb       0.08301      0.01850      8.27359        -0.095717     -0.153342      0.180149
Pb       3.75010      4.01143     12.54216         0.837918     -0.203834     -0.636124
Pb       3.81443     15.46967     12.41537         0.139503      0.670179     -0.177874
Pb      15.55879      3.81062     12.34439         0.178051      0.327611      0.209969
Pb       0.00343     15.59519     12.43378         0.036137      0.072303     -0.206587
Pb       3.76752      7.82564      4.09214         0.039603     -0.302605      0.304693
Pb       3.77406      7.73256     16.55998         0.909367     -0.122623      0.345567
Pb      15.60242      7.87425      4.01573         0.100695     -0.369810      0.330895
Pb      15.59298      7.79612     16.59835        -0.138324     -0.184591      0.690387
Pb       3.98783      7.80897      8.29744         0.230182     -0.330475     -0.176917
Pb      15.52063      7.80680      8.39381         0.239693     -0.220789     -0.853391
Pb       3.82701      7.85472     12.54735         0.451826     -0.158140     -0.436838
Pb      15.50058      7.74305     12.45408         0.259404     -0.108924     -0.072645
Pb       3.92961     11.71363      4.15380        -0.083588     -0.174684      0.053767
Pb       3.86902     11.67839     16.52102         0.477002     -0.183092      0.250463
Pb       0.00393     11.81768      4.11924         0.399240     -0.288436      0.391801
Pb       0.05540     11.80157      0.08891        -0.694644     -0.238924     -0.502942
Pb       3.87050     11.73474      8.29461         0.010575      0.167740     -0.218681
Pb      15.44608     11.69893      8.22517         0.621942      0.415602     -0.067195
Pb       3.79138     11.81813     12.46927         0.284972     -0.373433     -0.243133
Pb      15.55752     11.53867     12.38198         0.063329      0.214899      0.538362
Pb       7.71738      3.82046      4.09724         0.541546      0.236566      0.155153
Pb       7.60748      3.72567     16.58713         0.941083      0.602084     -0.056886
Pb       7.69816     15.56035      4.08219         0.838323      0.053936      0.433403
Pb       7.76317     15.50592      0.02945         0.590045      0.481187     -0.376713
Pb       7.76140      3.89655      8.39737        -0.491086     -0.082691     -0.355571
Pb       7.85795     15.53693      8.43701        -0.814333      0.135068     -0.390727
Pb       7.79482      3.92038     12.51272        -0.758320      0.119295     -0.408933
Pb       7.89927      0.07855     12.52519        -0.320184     -0.135473     -0.059016
Pb       7.66748      7.79253      3.98476         0.653007      0.060654      0.207604
Pb       7.81896      7.84168     16.53142        -0.105048     -0.201939      0.291118
Pb       7.90883      7.83934      8.37866        -0.686763      0.021493     -0.275089
Pb       7.90871      7.71076     12.52009        -0.843917      0.086183     -0.263846
Pb       7.76070     11.78250      4.04719        -0.045048     -0.376767     -0.213968
Pb       7.77600     11.59680     16.56222         0.295422     -0.105441      0.146675
Pb       7.64163     11.66684      8.31010         0.498008      0.225129      0.277237
Pb       7.77396     11.60290     12.49263         0.110536      0.372323      0.198763
Pb      11.73354      3.98456      4.26581        -0.575268     -0.297179     -0.402702
Pb      11.77233      3.92969     16.61964        -0.879824     -0.201307     -0.196636
Pb      11.70561      0.16263      4.20875        -0.442723     -0.249308     -0.267831
Pb      11.66658     15.56396     16.60657        -0.028059      0.305144     -0.249589
Pb      11.63850      3.93854      8.30619        -0.009125     -0.342873     -0.062939
Pb      11.48539     15.50105      8.21415         0.902681      0.083573      0.964579
Pb      11.68482      3.79566     12.44533         0.125037      0.262045      0.058209
Pb      11.74923     15.49413     12.40431         0.145819      0.264259     -0.110774
Pb      11.76530      7.65589      3.98605        -0.346666      0.357852      0.300392
Pb      11.65605      7.75609     16.60412        -0.003409      0.071116      0.375553
Pb      11.65898      7.84099      8.11537         0.409121      0.270893      0.144402
Pb      11.63524      7.77553     12.51278         0.250696     -0.017129     -0.457529
Pb      11.65115     11.73763      4.30559        -0.188459      0.098116     -0.039336
Pb      11.89621     11.75972     16.58660        -0.380068     -0.188250      0.341550
Pb      11.73257     11.71817      8.30161        -0.634592     -0.265711     -0.184472
Pb      11.58724     11.64772     12.32902         0.188062      0.162578      0.647720
Ti       1.96278      1.97273      2.18782         0.424925     -0.368006      0.871720
Ti       1.88017      1.91228     14.75991         0.833124     -0.126583     -1.125641
Ti       2.02705     13.61547      2.21004         0.542150      0.496850      0.339681
Ti       1.96423     13.63210     14.66584        -0.483852     -0.205097     -0.484082
Ti      13.66911      1.90668      2.22381        -0.688025      0.179002     -0.186842
Ti      13.55864      1.91801     14.67163        -0.026907     -0.644047     -0.124116
Ti      13.70079     13.71847      2.26003        -0.382396     -0.461400     -1.007337
Ti      13.66476     13.63129     14.59825         0.315112      0.196150      0.938930
Ti       1.91586      1.88043      6.32721         0.901158      0.744519      0.464401
Ti       2.00966     13.64660      6.40540        -0.115981     -0.230821      0.471783
Ti      13.58727      1.92680      6.38421         0.182968     -0.011039     -0.283607
Ti      13.64057     13.74418      6.36022         0.234694     -0.358143      0.541063
Ti       1.95027      1.90708     10.56699         0.798937      0.174138     -0.158433
Ti       1.83840     13.57276     10.49097         1.489563      0.876548     -0.251606
Ti      13.70482      1.86734     10.41163        -0.580792      0.126073      1.030364
Ti      13.70324     13.53941     10.51103        -1.213395      1.617848     -1.327316
Ti       1.92201      5.81153      2.15931         0.542968     -0.106187      1.511527
Ti       1.94694      5.78144     14.67818         0.804144      0.054561     -0.725378
Ti      13.63966      5.76872      2.21804         0.404102      1.051558      0.321505
Ti      13.70264      5.83892     14.76135        -0.487778      0.003040     -0.862968
Ti       1.98902      5.78795      6.32569         0.942914      0.092729     -0.378758
Ti      13.72247      5.79624      6.28267        -0.455138      0.610535      0.124958
Ti       1.92739      5.79708     10.50175         0.887749     -0.207339     -0.655463
Ti      13.55325      5.84532     10.48312         1.315133     -0.803168     -0.316322
Ti       1.86732      9.73764      2.20007         0.363053      0.553828      0.583108
Ti       1.89791      9.70068     14.74959         0.238427      0.114658      0.044726
Ti      13.59058      9.87267      2.28828         0.856487     -0.709001     -0.683642
Ti      13.69766      9.73691     14.72138         0.475779      0.213482     -0.546409
Ti       1.96494      9.65914      6.44581         0.280730      0.394084     -0.741261
Ti      13.68096      9.76306      6.29420        -0.794371     -0.509078      0.061776
Ti       1.90824      9.67513     10.47819         0.300255     -0.070354     -0.127421
Ti      13.56087      9.72351     10.54158        -0.140555     -0.471307      0.373251
Ti       5.83087      1.87875      2.22140         0.380390      0.669000      0.008300
Ti       5.81671      1.90684     14.63365         0.263797      0.365275     -0.337183
Ti       5.85409     13.68628      2.12291        -0.106283     -2.104048      0.364263
Ti       5.88838     13.63183     14.68998         0.102956      0.267173     -1.430273
Ti       5.82147      1.91489      6.44689         0.284202     -0.005319      1.134432
Ti       5.83680     13.64296      6.44464        -0.275365      0.970345      0.786079
Ti       5.84270      2.00105     10.57420        -0.440482      0.704248     -0.007935
Ti       5.85791     13.72758     10.65623         0.221936     -0.005816     -1.324961
Ti       5.84868      5.79071      2.14149         0.130347      0.109467     -0.034738
Ti       5.89408      5.84887     14.70935        -0.158268     -0.707467     -0.704796
Ti       5.99230      5.89587      6.35218        -0.996939     -0.369377      0.248482
Ti       5.81677      5.94677     10.43694        -0.696302     -0.920769      0.414553
Ti       5.76503      9.68728      2.20352         0.720518      1.093664     -1.370598
Ti       5.85095      9.68475     14.74415        -0.043808      0.120607     -0.818706
Ti       5.88183      9.78438      6.35841        -0.548909     -0.819722     -0.168467
Ti       5.76603      9.86105     10.61537        -0.127588     -1.854853     -0.921182
Ti       9.76223      1.94593      2.26862        -0.362646     -0.039469     -0.416666
Ti       9.70138      1.92842     14.63416        -0.001287      0.107882      1.209985
Ti       9.87736     13.63901      2.18447        -0.801033      0.720902     -0.652041
Ti       9.80274     13.62692     14.68659        -0.282236      0.028667     -0.399892
Ti       9.69321      1.92606      6.44888        -0.821466      0.213549     -0.165823
Ti       9.69043     13.59597      6.42564        -0.438011     -0.754482     -0.521206
Ti       9.75336      1.96331     10.53961        -0.015514     -0.294212     -0.913115
Ti       9.70869     13.60664     10.65028         0.427341      0.001873     -1.009452
Ti       9.70371      5.84794      2.14874        -0.437289     -1.221385      0.077265
Ti       9.76707      5.84845     14.65372        -0.516793     -1.422983      0.382482
Ti       9.80816      5.81102      6.38986        -0.595403     -0.177093     -0.111380
Ti       9.73082      5.85160     10.47408        -0.606207     -0.383341      0.495406
Ti       9.79753      9.83386      2.19259        -0.859856     -0.855561     -0.618552
Ti       9.91939      9.74221     14.65222        -1.574021      0.736305     -0.234944
Ti       9.65437      9.71620      6.30157         0.868911      0.876477     -0.269520
Ti       9.62128      9.71915     10.50083         0.669017      0.456601     -0.698110
O       2.04772      1.92576      0.41741        -0.552827      0.187606     -0.260613
O       1.85186      1.78349     12.96143         0.090714      0.133613      0.541717
O       2.18300     13.67752      0.42404        -0.820021     -0.535116     -0.171317
O       1.96846     13.68960     12.83415        -0.144491     -0.169092      0.931091
O      13.66617      1.86691      0.45186        -0.000566      0.218876     -0.096815
O      13.66335      1.95495     12.89143         0.163354     -0.073340      0.522360
O      13.64755     13.63978      0.41008         0.127261     -0.109737      1.380874
O      13.66587     13.59022     12.83531         0.164074      0.080522     -0.295561
O       2.12016      1.97753      4.57409        -0.517674     -0.315115     -0.564504
O       1.94913     13.55882      4.63223        -0.123456      0.660808     -0.795242
O      13.57178      1.97206      4.57057         0.107703     -0.304512     -0.166772
O      13.77115     13.66245      4.56349        -0.190283     -0.246536     -0.132677
O       1.91454      1.94600      8.79404         0.022369     -0.174051     -0.552710
O       1.94300     13.68897      8.73442        -0.109424     -0.268989     -0.270159
O      13.65121      1.84285      8.66845         0.092935      0.449184     -0.878337
O      13.59291     13.59374      8.66573         0.152933     -0.063991      1.315768
O       1.96900      5.71053      0.39992         0.009144      0.209468     -0.829391
O       2.04928      5.78386     12.86392        -0.236793      0.122771      0.637072
O      13.70591      5.75054      0.45812        -0.046462     -0.049948     -1.318364
O      13.71732      5.91690     12.99764        -0.210796     -0.371078     -0.355963
O       2.08159      5.96384      4.48053        -0.166108     -0.084873      1.014138
O      13.53602      5.74238      4.47821         0.367728      0.174170     -0.110707
O       1.89995      5.64633      8.68917        -0.311194      0.600149      0.499661
O      13.67880      5.75626      8.66398        -0.082153      0.353840      0.735908
O       1.84224      9.61705      0.44936         0.351167      0.609048     -1.081704
O       1.72678      9.51035     13.02200         0.287239      0.774313     -0.811236
O      13.68947      9.89771      0.50542        -0.131156     -0.383474     -0.743477
O      13.73619      9.74673     12.90417         0.080362     -0.178412      0.469581
O       2.01205      9.58227      4.60898        -0.093678      0.170856      0.552639
O      13.65304      9.79123      4.50502        -0.019733      0.106800      0.293771
O       1.88340      9.71756      8.67432         0.069625      0.057297      0.942280
O      13.49347      9.64012      8.77738         0.731542      0.124263     -0.112492
O       5.99536      1.90562      0.46247        -0.311798      0.081727     -0.407742
O       5.93239      2.06170     12.88491        -0.141059     -0.517712     -0.606039
O       5.72737     13.64813      0.36890         0.283861     -0.061535     -0.782547
O       5.92906     13.61688     12.81738        -0.403770     -0.377892      1.242731
O       5.72467      1.88382      4.69503         0.209949     -0.032231     -1.761432
O       5.80003     13.78638      4.70829         0.279340     -0.437177     -1.914061
O       5.74881      1.84638      8.77215         0.307374     -0.022219     -0.076109
O       5.98854     13.61996      8.80320        -0.445025     -0.120298      0.851317
O       5.94924      5.73307      0.35112        -0.089024     -0.096068      0.264526
O       5.84683      5.75711     12.90228         0.168394      0.344478      0.109873
O       5.94283      5.82180      4.54154        -0.121859      0.193198      0.559779
O       5.80878      5.96972      8.64762         0.247303     -0.044908     -0.216699
O       5.83223      9.76046      0.36990        -0.056003     -0.113204      0.543762
O       5.74982      9.55650     12.95160         0.435872      0.758460     -0.728724
O       5.87029      9.69374      4.57962         0.221153      0.169581     -0.869815
O       5.88420      9.78925      8.79596        -0.489334      0.053844      0.373483
O       9.67142      1.73001      0.49896         0.030009      0.266693     -0.324432
O       9.63601      1.93708     12.88184         0.481953      0.316066     -1.118672
O       9.77708     13.61103      0.33620         0.414009      0.409843      1.177246
O       9.73892     13.54241     12.85880         0.435348      0.029562      0.608178
O       9.67303      1.90981      4.66410         0.384369     -0.054596     -0.053214
O       9.72512     13.63666      4.63843        -0.045797     -0.204723     -0.149643
O       9.76381      1.84523      8.69994        -0.116125      0.149542      1.429330
O       9.77546     13.59562      8.83110        -0.206593      0.442612     -0.168784
O       9.72886      5.75808      0.38196         0.313080      0.255518     -0.154598
O       9.79706      5.81159     12.81948        -0.205910      0.294512      0.594524
O       9.88057      5.71111      4.61872        -0.197223      0.229566     -0.081425
O       9.80430      5.91697      8.69798         0.138011     -0.202987      0.412865
O       9.93690      9.74513      0.36243        -0.471935     -0.130577      0.316806
O       9.79954      9.76040     12.79668        -0.183064     -0.377161      1.152267
O       9.61917      9.74585      4.48729         0.522391      0.051223      0.325434
O       9.69209      9.80622      8.70060         0.078093     -0.741171      0.682580
O       3.90564      1.96804      2.45972         0.173874      0.168750      0.137424
O       3.99017      1.97388     15.09038        -1.209704     -0.048830     -0.199064
O       3.92187     13.43309      2.55637         0.489748      0.946832     -0.003136
O       3.87635     13.54857     14.90795        -0.114216     -0.390501     -0.145424
O       0.02072      1.88579      2.57112         0.446381     -0.249072     -0.183966
O       0.00803      1.82571     15.14095        -0.273507      0.298852     -0.430397
O       0.09335     13.85784      2.45021        -0.616086     -0.742177      0.110551
O      15.57757     13.63426     15.00656         0.655372      0.381402      0.142159
O       3.87415      1.94605      6.70793        -0.246352     -0.238494      0.346103
O       3.87808     13.69040      6.72599         0.318143     -0.257229      0.294922
O      15.59974      1.85231      6.59439        -0.451189      0.221095      0.075182
O      15.53166     13.75263      6.80222         0.184084     -0.773900     -0.573035
O       3.94345      1.93576     10.91767        -0.660379     -0.286036      0.029916
O       3.90587     13.53830     10.80841         0.093856      0.394610      0.393127
O       0.00852      1.73917     10.81125        -0.318331      0.937389      0.181080
O       0.00250     13.63281     10.70842        -0.674402      0.151425      0.471315
O       3.96101      5.77836      2.36866        -0.415173      0.401141      0.225875
O       4.00583      5.71670     15.03128        -1.279878      0.129425      0.183838
O       0.07986      5.93575      2.49231        -0.752152     -0.330997      0.121347
O       0.09186      5.78243     14.94415        -1.013248      0.282325      0.380816
O       3.88411      5.75570      6.69024         0.150890      0.680791     -0.280383
O      15.57339      5.75598      6.51555         0.172573      0.120279      0.330737
O       3.90724      5.61228     10.74577        -0.529007      0.384806      0.245955
O       0.06926      5.84208     10.75913        -1.004950      0.334835      0.427655
O       3.89527      9.86750      2.46220        -0.009116     -0.557244      0.121082
O       3.86746      9.78068     14.91669        -0.624999     -0.073489      0.571192
O      15.56529      9.72920      2.50035         0.752479      0.064020      0.381001
O      15.59120      9.53228     15.14834        -0.019635      0.608361     -0.544228
O       3.96283      9.69852      6.70069        -1.019530      0.158942      0.171409
O       0.00174      9.76790      6.63687        -0.325812      0.019466      0.230541
O       3.78460      9.78358     10.94883         0.116634      0.285044     -0.217197
O      15.54668      9.71561     10.89868         0.570319     -0.376419     -0.686779
O       7.77263      1.86441      2.60522        -0.755920     -0.418925      0.132655
O       7.78101      1.69701     14.90761         0.094448      0.202980      0.535323
O       7.83395     13.64249      2.37017        -0.256374      0.344401      0.514269
O       7.85735     13.73036     14.96083        -0.726241     -0.259628      0.149489
O       7.72764      1.83101      6.72730         0.896117      0.485231      0.216838
O       7.73992     13.53474      6.75108         1.067210      0.355764     -0.163873
O       7.83493      1.93096     10.86886         0.362659     -0.239711     -0.213036
O       7.87604     13.58533     10.97604        -0.925678      0.256385     -0.327922
O       7.78044      5.79649      2.45900         0.378793      0.019296      0.371013
O       7.85079      5.81723     14.95851         0.393931      0.418814     -0.170514
O       7.85189      5.77376      6.72852         0.012610      0.487775     -0.163934
O       7.72867      5.89740     10.75733         1.446280      0.107033      0.169397
O       7.86316      9.68241      2.37395         0.067516      0.325211      0.221350
O       7.78728      9.66599     14.89110         0.701799      0.217377      0.466583
O       7.79644      9.78246      6.71586        -0.243954     -0.251497     -0.112712
O       7.73860      9.55100     10.77539        -0.056004      0.511503      0.615156
O      11.68288      1.98808      2.47567         0.971296     -0.072778      0.405189
O      11.66431      1.91806     14.95820         1.112792      0.231299      0.154540
O      11.74393     13.55271      2.55868         0.148507      0.266360     -0.048597
O      11.74856     13.53853     15.00151        -0.168437     -0.028359     -0.366448
O      11.60334      1.90323      6.73549         1.083194      0.026125     -0.341720
O      11.64858     13.53211      6.66703         0.377441      0.478179     -0.183366
O      11.73036      2.13172     10.86165         0.071410     -0.869194     -0.363474
O      11.73792     13.59671     10.84867         0.035084     -0.091144      0.226920
O      11.73134      5.65215      2.44215        -0.164907      0.159768      0.088850
O      11.65540      5.84850     15.06340         0.841835     -0.263949     -0.106229
O      11.75015      5.80930      6.63464        -0.304306     -0.023071      0.301686
O      11.73570      5.73559     10.90385        -0.224868      0.285153     -0.489148
O      11.76610      9.74040      2.42405        -1.330117      0.159570      0.880284
O      11.77864      9.76085     14.86850        -0.500442     -0.311900      0.313299
O      11.67573      9.79517      6.61373         0.245512     -0.511287     -0.127412
O      11.67363      9.77998     10.91412         0.284579     -0.501873     -0.419725
O       1.94353      3.91145      2.53806        -0.105841     -0.624424     -0.285343
O       1.94386      3.83024     14.91151         0.074204     -0.120607      0.515577
O       2.15994     15.57756      2.53328        -0.607130      0.355734     -0.085071
O       2.01501     15.53491     15.13716        -0.288407      0.150789     -0.592849
O      13.85752      3.86584      2.47482        -0.526945     -0.337125     -0.134250
O      13.65136      3.87296     14.98674         0.183228     -0.204288      0.324301
O      13.63090     15.60634      2.58438        -0.033150      0.044280      0.040696
O      13.56627     15.53418     15.00744         0.340946      0.469776     -0.401473
O       1.96293      3.89822      6.65725        -0.587073     -0.522011     -0.274877
O       1.95848     15.56830      6.62178        -0.188544      0.928134      0.153448
O      13.61472      3.83407      6.43615         0.019758      0.311285      1.000012
O      13.55305     15.59102      6.56744        -0.159176      0.045482      0.128785
O       1.96205      3.81890     10.86142        -0.720602      0.130488      0.422465
O       1.96540      0.00424     10.83094         0.142377     -1.198155      0.256954
O      13.86867      3.89284     10.80478        -0.756222      0.024919     -0.233366
O      13.66965     15.60647     10.82410        -0.409984     -0.508005      0.082314
O       1.96063      7.88442      2.44669         0.382329     -1.174810      0.135222
O       2.09385      7.70621     15.02172        -0.674355     -0.083304      0.030234
O      13.59570      7.73943      2.50153         0.191981      0.020284      0.003220
O      13.60270      7.74159     15.03543         0.227753      0.253448      0.361897
O       1.88823      7.76709      6.79120         0.014860     -0.037635     -0.186591
O      13.65206      7.78041      6.59438         0.151785      0.027269      0.103174
O       2.06468      7.75287     10.84021        -0.592572      0.462464     -0.525848
O      13.61378      7.75407     10.90174         0.002221     -0.038213     -0.368014
O       1.95405     11.73460      2.63953        -0.790888     -0.623162     -0.596850
O       1.78187     11.67012     15.01799         0.456738     -0.053180     -0.148381
O      13.79944     11.76814      2.54822        -0.231876      0.270933      0.059075
O      13.76106     11.61736     15.00097         0.079598      0.592583      0.046069
O       2.02838     11.75897      6.60788        -0.465564     -1.332410      0.697591
O      13.60461     11.64633      6.78795         0.356233      0.212108     -0.814988
O       1.91516     11.70032     10.81583        -0.245170     -0.898613      0.249172
O      13.70811     11.68723     10.78510        -0.045784     -0.673161      0.005215
O       5.88431      3.83475      2.58757        -0.081321     -0.140657     -0.448385
O       6.00736      3.87928     14.85059        -0.011042     -0.824102      0.888237
O       5.75727     15.53080      2.39288         0.085993      0.703761      0.683518
O       5.68070     15.51005     14.89341         0.517104      0.093352      0.296429
O       5.91045      3.90360      6.82115        -0.088093     -0.147034     -0.453674
O       5.84705     15.55664      6.75826        -0.121418      0.412834      0.305122
O       5.91178      3.88264     10.58887         0.399202     -0.187884      0.609594
O       5.83636     15.59714     10.82279         0.192894     -0.591489      0.369596
O       5.98640      7.78551      2.36323        -0.886808     -0.129456      0.274580
O       5.85712      7.78823     14.96859        -0.203211     -0.606163      0.596295
O       5.85296      7.83638      6.66370         0.311648     -0.638920      0.009219
O       5.58790      7.74208     10.78784         0.273952      0.967193      0.277218
O       5.93092     11.70064      2.45376         0.123745     -0.161005      0.475559
O       5.91343     11.66247     15.02367        -0.089590      0.613210     -0.213645
O       5.79397     11.69840      6.62291        -0.014688     -0.323680      0.381316
O       5.81097     11.67450     10.83853         0.427468      0.054543      0.589804
O       9.61054      3.80974      2.51070         0.372654      0.456677      0.128908
O       9.77179      3.80704     14.93715        -0.192373      0.600183      0.072650
O       9.83158     15.57989      2.66736        -0.100552     -0.871151     -0.342810
O       9.91128     15.59903     14.91754        -0.205545     -1.195341      0.001237
O       9.76608      3.89003      6.84660        -0.047223     -0.187002     -0.376971
O       9.67700     15.56927      6.82473        -0.015273     -0.627024     -0.764519
O       9.74572      3.90951     10.69988        -0.113963      0.040250      0.296143
O       9.83466     15.60256     10.98605        -0.139053      0.037145     -0.601105
O       9.78318      7.67402      2.43234         0.466977      1.015497      0.234143
O       9.74585      7.76679     14.96596         0.502645      0.475932     -0.257032
O       9.73420      7.79214      6.73925        -0.006476     -0.133742     -0.513648
O       9.71366      7.76035     10.80661         0.656348     -0.012723      0.188371
O       9.78570     11.69652      2.44537         0.008955      0.239017      0.463501
O       9.68710     11.64470     14.94180         0.286295     -0.180593     -0.103910
O       9.74861     11.63948      6.61129        -0.085900      0.483337      0.068657
O       9.69042     11.63820     10.73185         0.059806     -0.115891      0.865487
