  # total energy = -7883.56626867 
CRSYTAL
PRIMVEC
    15.6080000000000005    0.0000000000000000    0.0000000000000000
     0.0000000000000000   15.6080000000000005    0.0000000000000000
     0.0000000000000000    0.0000000000000000   16.6239999999999988
PRESSURE
-0.727994 -0.845034 -0.935816 -0.242324 0.445135 0.000413
PRIMCOORD
320 1
Pb       3.92475      3.80356      4.12028        -0.070330      0.476039      0.440915
Pb       3.83373      3.82808      0.04990         0.403676      0.513105     -0.528890
Pb       3.91560     15.57533      4.16272        -0.155182      0.010025      0.425017
Pb       3.85119     15.52605      0.00852         0.502975      0.191902     -0.048299
Pb      15.46169      3.83718      4.10582         0.995912      0.167106      0.568417
Pb      15.56984      3.86154     16.56575         0.048297      0.035769      0.189972
Pb       0.06139     15.59544      4.12365         0.221074     -0.088004      0.082710
Pb       0.07893     15.58706      0.00502        -0.786775     -0.497344     -0.105748
Pb       3.92527      3.92538      8.32811         0.027672      0.210950     -0.066602
Pb       3.95649      0.15843      8.40213         0.119372     -0.305461     -0.256444
Pb      15.58098      3.92287      8.23073         0.749278      0.078680      0.037325
Pb       0.08484      0.02099      8.27422        -0.107334     -0.050964      0.199126
Pb       3.75573      4.01093     12.53585         0.862821     -0.207631     -0.603022
Pb       3.81563     15.47171     12.40907         0.163222      0.723726     -0.128591
Pb      15.55750      3.80578     12.33589         0.267229      0.311805      0.125009
Pb      15.60352     15.59491     12.43033         0.100757      0.011979     -0.050488
Pb       3.76999      7.82077      4.09854         0.034987     -0.274588      0.354526
Pb       3.77224      7.73797     16.56070         0.856264     -0.175678      0.263728
Pb      15.60068      7.87123      4.01576         0.096804     -0.298346      0.425988
Pb      15.59500      7.79683     16.59955        -0.110690     -0.153858      0.643956
Pb       3.99164      7.81076      8.29424         0.167710     -0.435932     -0.267262
Pb      15.52837      7.80995      8.38283         0.316882     -0.263329     -0.805993
Pb       3.82357      7.85515     12.54736         0.411490     -0.235747     -0.302545
Pb      15.50609      7.74484     12.45094         0.208705     -0.104717      0.009387
Pb       3.93215     11.71416      4.15599        -0.126832     -0.358838      0.216801
Pb       3.86958     11.67802     16.51965         0.436705     -0.180712      0.206005
Pb       0.00629     11.81849      4.12172         0.457799     -0.356752      0.362234
Pb       0.05751     11.80053      0.08962        -0.657913     -0.300250     -0.580209
Pb       3.87183     11.72517      8.29157         0.049060      0.290160     -0.253925
Pb      15.44560     11.70105      8.22981         0.567053      0.319642     -0.031430
Pb       3.78890     11.82036     12.47408         0.201675     -0.310938     -0.140584
Pb      15.55386     11.53916     12.38015         0.038339      0.212647      0.587778
Pb       7.71753      3.82802      4.09512         0.446602      0.245358      0.240311
Pb       7.60627      3.72086     16.59007         0.913683      0.566231     -0.088642
Pb       7.69717     15.56450      4.07928         0.777764      0.028907      0.417398
Pb       7.76163     15.49955      0.03026         0.706255      0.373585     -0.379075
Pb       7.76267      3.90051      8.39038        -0.632384     -0.089958     -0.501186
Pb       7.85477     15.53650      8.43875        -0.860866      0.066194     -0.404914
Pb       7.79364      3.93004     12.51089        -0.812562      0.128764     -0.343700
Pb       7.89859      0.08181     12.52411        -0.295316     -0.093014     -0.048163
Pb       7.66086      7.79252      3.98276         0.731297      0.064987      0.262777
Pb       7.82523      7.84070     16.53162        -0.124124     -0.067249      0.224998
Pb       7.90346      7.83757      8.38483        -0.525470     -0.053059     -0.358985
Pb       7.90337      7.71697     12.52298        -0.711289      0.086966     -0.178992
Pb       7.75728     11.78231      4.04791        -0.033955     -0.335396     -0.231163
Pb       7.77724     11.59168     16.56596         0.330761     -0.163041      0.100301
Pb       7.63925     11.66484      8.31218         0.444773      0.319421      0.337518
Pb       7.77039     11.60646     12.49411         0.140385      0.280478      0.197515
Pb      11.72914      3.98833      4.26231        -0.548638     -0.269153     -0.428911
Pb      11.77263      3.91961     16.60737        -0.950611     -0.058155     -0.083800
Pb      11.71587      0.16925      4.21029        -0.424763     -0.374601     -0.311755
Pb      11.66985     15.56377     16.61075        -0.168152      0.163068     -0.315134
Pb      11.63936      3.92896      8.30015         0.028840     -0.364192     -0.069363
Pb      11.48663     15.49686      8.21096         1.018436      0.000397      1.087249
Pb      11.67934      3.79898     12.44325         0.172978      0.283959      0.127209
Pb      11.75866     15.49627     12.40496         0.021127      0.081034     -0.066204
Pb      11.76487      7.66044      3.98868        -0.380232      0.427531      0.168191
Pb      11.65502      7.75343     16.60156        -0.053163      0.160241      0.328323
Pb      11.66194      7.84102      8.11157         0.236020      0.402974      0.135362
Pb      11.64557      7.76656     12.51053         0.135016      0.055500     -0.296050
Pb      11.64358     11.75084      4.30437        -0.147725      0.035861     -0.121907
Pb      11.89438     11.76252     16.58720        -0.375942     -0.231118      0.366152
Pb      11.72871     11.71145      8.29283        -0.543300     -0.243651     -0.111930
Pb      11.58410     11.64433     12.32922         0.216711      0.080215      0.656668
Ti       1.97046      1.97391      2.20163         0.418126     -0.475108      1.110155
Ti       1.88390      1.90633     14.77222         0.694877     -0.056844     -1.369468
Ti       2.05414     13.59888      2.20802        -0.051928      0.603330      0.610754
Ti       1.96825     13.64266     14.66604        -0.556032     -0.743102     -0.497378
Ti      13.66792      1.90632      2.22549        -0.489846      0.083976     -0.320969
Ti      13.54778      1.93396     14.67831         0.198581     -0.863993      0.244350
Ti      13.70717     13.71078      2.26282        -0.343512     -0.488116     -1.113390
Ti      13.66684     13.64459     14.59917         0.403854     -0.050992      0.885779
Ti       1.90817      1.89653      6.32981         0.993580      0.688736      0.518150
Ti       2.00215     13.64746      6.40665         0.025240     -0.260076      0.588431
Ti      13.58148      1.92844      6.37341         0.429907      0.102469      0.046841
Ti      13.64594     13.74341      6.35291         0.201978     -0.402511      0.543943
Ti       1.95045      1.89639     10.56938         0.882061      0.555293     -0.415035
Ti       1.83209     13.56766     10.49097         1.635790      0.799994     -0.308616
Ti      13.69150      1.86599     10.41683        -0.416963      0.160560     -0.029616
Ti      13.70027     13.55433     10.52258        -1.328389      0.946812     -1.482765
Ti       1.92530      5.81325      2.17070         0.462036     -0.220951      0.924389
Ti       1.93123      5.77161     14.67160         1.264539      0.457170     -0.218146
Ti      13.65000      5.76974      2.20853         0.264207      1.215146     -0.015287
Ti      13.70162      5.84176     14.76924        -0.492417      0.296922     -0.810615
Ti       1.99089      5.80273      6.31879         0.889679     -0.054971     -0.302655
Ti      13.71859      5.79772      6.27498        -0.004258      0.600068     -0.008151
Ti       1.92591      5.81813     10.50632         0.724324     -0.565123     -1.118228
Ti      13.55156      5.83325     10.46675         1.533646     -0.547858      0.085189
Ti       1.86991      9.73239      2.20555         0.303156      0.743123      0.662477
Ti       1.90801      9.70808     14.74911         0.040078      0.144200      0.087836
Ti      13.58760      9.87073      2.29583         0.723229     -0.697123     -1.056984
Ti      13.70020      9.74730     14.70876         0.429113      0.000760     -0.052903
Ti       1.96290      9.66255      6.44237         0.167587      0.469355     -0.835511
Ti      13.68041      9.75516      6.29861        -0.696009     -0.351848      0.142023
Ti       1.90810      9.68578     10.48678        -0.058348     -0.029266     -0.257833
Ti      13.55501      9.70696     10.54966        -0.111106     -0.212311      0.247211
Ti       5.83517      1.86995      2.22627         0.312450      0.657456      0.717992
Ti       5.81090      1.90958     14.63827         0.527758      0.397400     -0.698406
Ti       5.84678     13.67802      2.12356         0.153951     -2.034500      0.303935
Ti       5.89867     13.63827     14.67608        -0.052819      0.063364     -0.996780
Ti       5.82101      1.90127      6.44296         0.269963      0.369681      1.331651
Ti       5.83613     13.64978      6.45345        -0.214468      0.851661      0.905055
Ti       5.85431      2.01224     10.57033        -0.583581      0.601935     -0.010456
Ti       5.86109     13.72395     10.67089         0.211817     -0.203684     -1.708674
Ti       5.83530      5.78182      2.14111         0.320351      0.141221     -0.026926
Ti       5.89345      5.84779     14.70378        -0.257630     -0.510275     -0.897234
Ti       5.99481      5.90552      6.35008        -0.892424     -0.646294      0.498519
Ti       5.81929      5.95087     10.42302        -0.639700     -1.123212      0.645874
Ti       5.76868      9.69127      2.20501         0.629091      1.001990     -1.574556
Ti       5.84044      9.69556     14.75017         0.335540     -0.153104     -0.476475
Ti       5.87326      9.78520      6.36890        -0.310416     -0.762421     -0.446787
Ti       5.76519      9.84868     10.63269        -0.006943     -1.382455     -1.063453
Ti       9.76729      1.94831      2.27701        -0.547692     -0.201665     -0.958333
Ti       9.69776      1.93808     14.62900        -0.109434     -0.224195      1.606852
Ti       9.86549     13.64191      2.19569        -0.870039      0.644358     -1.001627
Ti       9.80197     13.61776     14.68210        -0.214075      0.153681      0.051942
Ti       9.70893      1.91780      6.45503        -1.201516      0.250550     -0.188764
Ti       9.70238     13.58382      6.42335        -0.673708     -0.765480     -0.416047
Ti       9.75406      1.96792     10.53463        -0.132867     -0.505294     -0.680320
Ti       9.70636     13.60215     10.65470         0.418175      0.070148     -0.961793
Ti       9.70843      5.83355      2.14919        -0.352850     -0.785840     -0.053438
Ti       9.76190      5.84122     14.66357        -0.550582     -0.933572      0.270837
Ti       9.83056      5.80527      6.38353        -1.138023      0.063767      0.284818
Ti       9.73196      5.84534     10.47930        -0.692470     -0.095405      0.397666
Ti       9.80237      9.84158      2.19602        -0.936637     -1.068839     -1.107350
Ti       9.92051      9.74529     14.66028        -1.609061      0.478919     -0.243106
Ti       9.64560      9.71485      6.29003         0.942198      0.831246     -0.029252
Ti       9.61696      9.72147     10.49620         0.742601      0.383452     -0.145797
O       2.04008      1.93470      0.44380        -0.453507      0.061436     -0.846078
O       1.85701      1.76065     12.96112         0.054086      0.251365      0.913829
O       2.18909     13.66057      0.43778        -0.734122     -0.493579     -0.348463
O       1.96150     13.68478     12.84864        -0.087098     -0.091425      0.493761
O      13.67135      1.86781      0.44597        -0.065567      0.258674      0.113832
O      13.65996      1.96400     12.91783         0.215071     -0.054082      0.016116
O      13.63411     13.64347      0.40312         0.175930     -0.084939      1.515653
O      13.65231     13.60149     12.83022         0.239480      0.093782     -0.287105
O       2.10362      1.97868      4.57519        -0.455371     -0.373330     -0.577112
O       1.94337     13.54592      4.63710        -0.120562      0.754075     -0.739566
O      13.57728      1.97239      4.56781         0.088664     -0.256559     -0.419754
O      13.77399     13.64774      4.54904        -0.230919     -0.082752      0.184719
O       1.90663      1.95667      8.78501         0.011064     -0.257844     -0.214203
O       1.95466     13.67468      8.73086        -0.120394     -0.229378     -0.054334
O      13.64827      1.82103      8.63367         0.048260      0.556848      0.206071
O      13.59197     13.59451      8.67224         0.105755      0.046792      1.291912
O       1.95368      5.70701      0.39272         0.079634      0.168335     -0.336788
O       2.07728      5.77778     12.88165        -0.388715      0.113992      0.075551
O      13.70677      5.78987      0.43246        -0.058004     -0.246354     -0.797247
O      13.72098      5.92569     13.01351        -0.247015     -0.445409     -0.555086
O       2.07899      5.97812      4.46310        -0.134341     -0.137603      1.035221
O      13.53812      5.75264      4.46520         0.325144      0.134455     -0.052660
O       1.88345      5.65994      8.66417        -0.235060      0.674792      1.059261
O      13.70171      5.74734      8.66963        -0.258540      0.380064      0.457486
O       1.85107      9.62965      0.45523         0.336565      0.584846     -1.027835
O       1.73121      9.50317     13.02144         0.340397      0.806255     -0.800886
O      13.68993      9.90262      0.50102        -0.147836     -0.331107     -0.289529
O      13.72357      9.73789     12.91028         0.148511     -0.114583      0.125335
O       2.00875      9.58165      4.60478        -0.057817      0.155844      0.596903
O      13.65972      9.77518      4.51608        -0.138315      0.179626      0.252980
O       1.87519      9.73023      8.68117         0.139786     -0.091585      0.887235
O      13.47855      9.66422      8.77996         0.738615     -0.108897     -0.121615
O       5.98081      1.90899      0.49347        -0.225216      0.099035     -1.088673
O       5.93001      2.06659     12.88316        -0.139973     -0.533931     -0.431590
O       5.72715     13.65197      0.36688         0.183691     -0.065357     -0.601541
O       5.93090     13.59926     12.82701        -0.348434     -0.283800      0.993248
O       5.72939      1.88160      4.70035         0.170332     -0.090763     -2.028721
O       5.81400     13.78493      4.71242         0.269941     -0.438281     -1.802270
O       5.77003      1.86947      8.77051         0.217338     -0.177177      0.060183
O       5.97571     13.59243      8.79037        -0.495050      0.026812      1.115508
O       5.95840      5.72746      0.35664        -0.139932     -0.140597      0.551765
O       5.85420      5.76165     12.88628         0.146985      0.304968      0.105904
O       5.92251      5.82928      4.55518        -0.044276      0.159590      0.123923
O       5.82144      5.96950      8.63839         0.196213     -0.046308     -0.164734
O       5.83510      9.73414      0.35885        -0.077062      0.014794      0.821768
O       5.74644      9.55723     12.96904         0.372797      0.678336     -1.184876
O       5.84943      9.69174      4.58595         0.293875      0.224731     -0.754714
O       5.90766      9.79434      8.81155        -0.689030     -0.052238      0.328753
O       9.66795      1.73599      0.48710         0.107344      0.314461      0.125478
O       9.63451      1.95807     12.89181         0.453966      0.220698     -1.469992
O       9.76383     13.62455      0.33662         0.499974      0.389791      1.161798
O       9.75605     13.55261     12.87261         0.255910     -0.083646      0.310213
O       9.68498      1.91619      4.67519         0.399548     -0.105336     -0.182264
O       9.71432     13.65013      4.63727        -0.024917     -0.322246     -0.189336
O       9.75724      1.82399      8.70857         0.020593      0.233263      1.157906
O       9.78300     13.59629      8.84346        -0.148849      0.509798     -0.234799
O       9.75349      5.78300      0.37924         0.132920      0.080807     -0.193838
O       9.81081      5.81331     12.83382        -0.225508      0.165852      0.364029
O       9.88365      5.69878      4.63118        -0.143557      0.202111     -0.444074
O       9.78428      5.92373      8.70350         0.287148     -0.256872      0.372942
O       9.91730      9.73633      0.34060        -0.387047     -0.136864      0.655611
O       9.80603      9.76331     12.80351        -0.241043     -0.330054      0.917806
O       9.65563      9.77423      4.49992         0.346305      0.018018     -0.196498
O       9.68784      9.80787      8.72279         0.102818     -0.738114      0.187902
O       3.91850      1.98257      2.47877         0.016697      0.003221      0.104807
O       3.99539      1.97340     15.08556        -1.548074     -0.056199     -0.067513
O       3.91970     13.42598      2.58831         0.777005      0.978162     -0.187825
O       3.85717     13.52268     14.92066         0.390270     -0.274506     -0.204716
O       0.03203      1.87692      2.57819         0.229914     -0.250444     -0.198403
O       0.00476      1.81775     15.15713         0.005426      0.350960     -0.541737
O       0.08403     13.83393      2.44436        -0.391885     -0.534002      0.140395
O      15.58989     13.60276     14.98741         0.339976      0.627290      0.289870
O       3.86860      1.93081      6.72342        -0.317543     -0.202806      0.269850
O       3.87619     13.68997      6.73424         0.309534     -0.206882      0.216114
O      15.59806      1.88032      6.60642        -0.430002      0.117285     -0.043982
O      15.53202     13.75712      6.83070         0.093214     -0.800298     -0.812983
O       3.94425      1.96024     10.90753        -0.714352     -0.495133      0.009571
O       3.90937     13.54810     10.84647        -0.039398      0.323760      0.227699
O       0.00680      1.73070     10.82376        -0.446093      0.989185      0.107740
O       0.00623     13.64775     10.70789        -0.794489      0.189850      0.476158
O       3.93764      5.76857      2.36604        -0.013016      0.398525      0.178759
O       4.01727      5.71843     15.01576        -1.414605      0.008991      0.339448
O       0.07935      5.94171      2.48459        -0.867219     -0.371672      0.124636
O       0.10322      5.81349     14.93427        -1.344089      0.053186      0.362629
O       3.89580      5.77126      6.69519         0.018319      0.737814     -0.279391
O      15.58110      5.77127      6.51213        -0.050058      0.028746      0.262318
O       3.89874      5.61029     10.75163        -0.394155      0.606725      0.110435
O       0.06409      5.84884     10.76168        -0.979367      0.172373      0.468092
O       3.90360      9.89026      2.45387        -0.020820     -0.647565      0.143623
O       3.86963      9.78210     14.92944        -0.620659     -0.099539      0.502523
O      15.56582      9.74476      2.53368         0.743460      0.038964      0.178153
O       0.00472      9.52482     15.16043        -0.266554      0.784376     -0.680699
O       3.94342      9.68993      6.68052        -0.690188      0.073467      0.355429
O       0.00214      9.77829      6.64781        -0.424238     -0.103644      0.199653
O       3.76192      9.78702     10.95706         0.578027      0.165295     -0.235919
O      15.54593      9.73348     10.89937         0.510761     -0.578203     -0.633435
O       7.78941      1.86393      2.61385        -0.697706     -0.319935      0.107497
O       7.76477      1.70430     14.90840         0.237686      0.198920      0.562294
O       7.83915     13.63594      2.34965        -0.469441      0.350759      0.674270
O       7.84479     13.71982     14.97008        -0.638471     -0.281469      0.031018
O       7.71324      1.83220      6.71892         1.425215      0.440606      0.262944
O       7.73068     13.50836      6.76863         1.157890      0.517381     -0.271093
O       7.83846      1.92554     10.86370         0.401233     -0.234606     -0.165192
O       7.86081     13.56653     10.95091        -0.727714      0.376221     -0.109088
O       7.78912      5.79752      2.48467        -0.021267     -0.073932      0.268842
O       7.84350      5.82696     14.94369         0.576190      0.263319     -0.070520
O       7.86235      5.75798      6.73690        -0.098563      0.503373     -0.246694
O       7.73911      5.88654     10.76595         1.233620      0.071826      0.102555
O       7.87757      9.68670      2.35988        -0.190074      0.273590      0.428461
O       7.78835      9.66071     14.89552         0.446519      0.197485      0.436950
O       7.80321      9.75149      6.69353        -0.599633      0.005933      0.001777
O       7.73740      9.54492     10.78291        -0.207385      0.609153      0.659125
O      11.68487      1.98203      2.47639         1.026153     -0.067807      0.400195
O      11.66436      1.93462     14.94214         0.910023      0.105406      0.209309
O      11.71908     13.54359      2.55905         0.578704      0.334471     -0.006400
O      11.76512     13.53813     14.99795        -0.496843      0.022958     -0.346765
O      11.61493      1.92131      6.71129         0.895837     -0.069998     -0.200942
O      11.65702     13.51662      6.65218         0.419840      0.599580     -0.185589
O      11.73386      2.12138     10.86405         0.046860     -0.815779     -0.384150
O      11.74951     13.59387     10.86044        -0.071498      0.006189      0.146702
O      11.72450      5.67333      2.42667         0.254171      0.030300      0.194263
O      11.65370      5.84857     15.05367         0.888915     -0.305740     -0.053302
O      11.75041      5.80582      6.62368        -0.236515     -0.001283      0.411606
O      11.73467      5.73889     10.89520        -0.230748      0.175961     -0.513884
O      11.74073      9.75728      2.42971        -0.685488      0.155958      0.878079
O      11.77095      9.74597     14.86826        -0.058739     -0.257531      0.312587
O      11.66066      9.78184      6.62781         0.421777     -0.453375     -0.131660
O      11.67543      9.78511     10.91371         0.199985     -0.553746     -0.434989
O       1.94070      3.89455      2.54278        -0.130910     -0.332358     -0.281839
O       1.92854      3.82929     14.94458         0.080066     -0.447111      0.339607
O       2.20238     15.56581      2.53336        -0.818948      0.337852     -0.131408
O       2.02788     15.49914     15.15290        -0.399069      0.958088     -0.549088
O      13.86981      3.87136      2.48111        -0.666464     -0.299464     -0.337738
O      13.64254      3.88503     14.98181         0.284505     -0.353662      0.378563
O      13.64181      0.00200      2.58400        -0.130761      0.059884      0.057461
O      13.57455     15.53752     15.00991         0.314314      0.507673     -0.385707
O       1.97176      3.91369      6.64059        -0.568513     -0.651888     -0.259750
O       1.94990     15.57190      6.63046        -0.221110      0.847788      0.109703
O      13.62013      3.84759      6.43266        -0.069610      0.226550      0.961388
O      13.56206     15.60457      6.54837        -0.192555     -0.300934      0.049679
O       1.96588      3.82652     10.84359        -0.865441     -0.020577      0.549463
O       1.96464     15.60024     10.83862         0.175020     -0.988388      0.128698
O      13.85862      3.87993     10.79139        -0.689778      0.014701     -0.152565
O      13.64970      0.01277     10.84158        -0.292934     -0.552067     -0.008672
O       1.96326      7.88598      2.45132         0.398172     -1.240600      0.069492
O       2.08799      7.69846     15.02403        -0.492172      0.024564      0.022113
O      13.60203      7.77485      2.49979         0.120210     -0.267542      0.017639
O      13.61589      7.75469     15.03761         0.169795      0.076703      0.333862
O       1.87717      7.76287      6.77139         0.079616      0.087282     -0.050674
O      13.66271      7.76749      6.57659         0.009653      0.156892      0.279976
O       2.01798      7.75443     10.85532        -0.320471      0.372750     -0.529040
O      13.61941      7.74711     10.91703        -0.056090     -0.087221     -0.539968
O       1.96180     11.72528      2.65436        -0.770022     -0.545960     -0.639252
O       1.77967     11.67807     15.00457         0.522487     -0.380675     -0.014141
O      13.81290     11.77425      2.55602        -0.409324      0.187633     -0.003118
O      13.75710     11.61945     15.00328         0.092527      0.547832     -0.014331
O       2.02485     11.74786      6.60540        -0.436573     -1.151972      0.683211
O      13.60777     11.64406      6.77926         0.315094      0.252595     -0.811917
O       1.89355     11.68952     10.81513        -0.106302     -0.610245      0.278156
O      13.72088     11.67407     10.77311        -0.093392     -0.193067      0.105003
O       5.86667      3.80519      2.59922         0.108204      0.470790     -0.475612
O       6.00476      3.88833     14.85992        -0.001073     -1.103400      0.890968
O       5.77436     15.52758      2.39132         0.001020      0.530168      0.712647
O       5.66861     15.50526     14.88332         0.490008      0.164048      0.309701
O       5.89601      3.89242      6.81461        -0.030953      0.006364     -0.386694
O       5.86617     15.57043      6.77177        -0.223092     -0.029849      0.289142
O       5.89491      3.88470     10.59531         0.512925     -0.063892      0.574559
O       5.84105     15.58835     10.82755         0.163971     -0.385623      0.349700
O       5.98495      7.79580      2.38601        -0.960379     -0.434124      0.146697
O       5.84860      7.76711     14.99101        -0.207382     -0.181731      0.452903
O       5.86412      7.82685      6.65475         0.205727     -0.384176      0.137595
O       5.61405      7.74260     10.76939         0.105541      1.107471      0.338938
O       5.95355     11.70126      2.45218         0.016451     -0.152043      0.452487
O       5.92719     11.65398     15.02166        -0.226872      0.702585     -0.233843
O       5.78348     11.68986      6.63775        -0.029532     -0.342614      0.299159
O       5.81915     11.68967     10.83464         0.293301     -0.578479      0.659249
O       9.63195      3.82360      2.50903         0.325229      0.158850      0.152768
O       9.76100      3.80526     14.93741        -0.173462      0.617121      0.145703
O       9.81842     15.57004      2.66404         0.023886     -0.499380     -0.278708
O       9.87093     15.57810     14.91337         0.024889     -0.818017      0.012623
O       9.76244      3.88439      6.83735         0.098253     -0.262206     -0.246657
O       9.68484     15.54545      6.83598        -0.073179     -0.246317     -0.851588
O       9.73442      3.89850     10.70504         0.030522      0.049901      0.239948
O       9.83052     15.58586     11.00490        -0.139466      0.311764     -0.623322
O       9.79087      7.66922      2.43983         0.418397      0.883186      0.333730
O       9.73367      7.77497     14.94638         0.548660      0.101698     -0.171412
O       9.70524      7.80923      6.71724         0.303643     -0.495031     -0.326181
O       9.70689      7.76347     10.80833         0.688571     -0.159158      0.144479
O       9.78887     11.69120      2.41422        -0.076446      0.381421      0.637139
O       9.69436     11.61798     14.93964         0.215888      0.479422     -0.064738
O       9.73778     11.65366      6.63038        -0.032241      0.337287      0.026978
O       9.69165     11.65406     10.73121         0.069901     -0.318462      0.936302
