  # total energy = -7879.88907027 
CRSYTAL
PRIMVEC
    15.6080000000000005    0.0000000000000000    0.0000000000000000
     0.0000000000000000   15.6080000000000005    0.0000000000000000
     0.0000000000000000    0.0000000000000000   16.6239999999999988
PRESSURE
0.125045 -0.339954 -0.395951 0.044492 -0.292784 -0.081399
PRIMCOORD
320 1
Pb       3.99155      4.06069      4.23153        -0.168611     -0.115731     -0.069571
Pb       3.96631      4.02228     16.48586        -0.086657     -0.280026      0.691141
Pb       3.90797      0.09813      4.00935        -0.116386     -0.735357      0.501382
Pb       3.84536      0.03791     16.45929         0.506740     -0.608303      1.392753
Pb       0.15306      3.84595      4.20757        -0.639495      0.319280     -0.344160
Pb      15.58434      3.77633     16.62190        -0.367261      0.721099      0.474563
Pb      15.40720      0.03984      4.11769         0.355938     -0.208771     -0.407798
Pb      15.48629      0.01821     16.55913         0.177644     -0.300375      0.767478
Pb       3.79792      3.81144      8.23189        -0.144001      0.513335      0.081170
Pb       3.90233     15.50860      8.05857         0.061808      0.443538      0.608819
Pb      15.54151      3.86788      8.38449        -0.094074      0.027568     -0.149748
Pb      15.58382     15.54061      8.23706        -0.427120      0.353079      0.292596
Pb       3.76178      3.86574     12.57549         0.080914      0.273924     -0.656542
Pb       3.91871     15.52791     12.52628        -0.006182      0.233157     -0.798506
Pb       0.00686      4.01244     12.62297        -0.420537     -0.557112     -0.242168
Pb       0.16550     15.55340     12.45299        -0.921138      0.255236      0.131697
Pb       3.87207      7.87615      4.06382        -0.164457      0.053263      0.676252
Pb       3.99464      7.74557     16.59976        -0.032015      0.708799     -0.067719
Pb       0.10558      7.80529      4.20705        -0.454430      0.017157     -0.205694
Pb      15.50990      7.75017     16.59863        -0.193646      0.061751     -0.155265
Pb       3.78526      7.72788      8.30472         0.270448     -0.010711     -0.215860
Pb      15.36086      7.67512      8.48569         0.171527     -0.033449     -0.546387
Pb       4.00468      7.79711     12.32376        -0.262482      0.011466      0.672096
Pb      15.46096      7.78582     12.52278         0.105919     -0.034049      0.153190
Pb       3.80041     11.69547      4.01593         0.514739     -0.161501      0.622053
Pb       3.95096     11.63634     16.60233        -0.206697     -0.150137     -0.106788
Pb      15.56882     11.65063      4.10845        -0.074822      0.080310      0.254687
Pb      15.49258     11.73184     16.52898         0.311892      0.511086     -0.139677
Pb       3.86307     11.84846      8.23870         0.112407     -0.339777     -0.442077
Pb       0.15182     11.64648      8.15400        -0.695853      0.133585      0.965151
Pb       4.01732     11.51606     12.23568        -0.142156      0.125552      0.707086
Pb       0.16678     11.66169     12.43179        -0.248797      0.382904      0.178621
Pb       7.83732      3.70167      4.13095        -0.245697      0.513750      0.338038
Pb       7.99323      4.01992     16.58315        -0.646371     -0.335109      0.150347
Pb       7.85040     15.46640      4.13506        -0.468745     -0.186201      0.295694
Pb       7.83376      0.13748     16.54481        -0.279768     -0.308205      0.044292
Pb       7.59296      3.79085      8.48828         0.670879      0.529265     -0.669152
Pb       7.74554      0.06331      8.15314         0.013807     -0.896677      0.077934
Pb       7.79816      3.55883     12.56605         0.256399      1.093660     -0.134761
Pb       7.70854     15.40999     12.42429         0.471528      0.407496      0.589208
Pb       7.96695      7.85622      4.22649        -0.759050     -0.325256     -0.245117
Pb       7.63472      7.77305     16.62252         0.761932      0.539529      0.080745
Pb       7.75249      7.81005      8.12271         0.302568     -0.431160      0.639161
Pb       7.79167      7.66747     12.38483         0.254921     -0.089089     -0.135891
Pb       7.87467     11.55332      4.15863         0.014781      0.991122     -0.163110
Pb       7.75762     11.89356     16.54295         0.492055     -0.531632      0.122283
Pb       7.77224     11.67997      8.13666         0.160926      0.537413      0.792261
Pb       7.84690     11.60277     12.32425        -0.135973     -0.083439      0.679133
Pb      11.75935      3.65155      4.22097        -0.076073      0.723172     -0.139890
Pb      11.68708      4.09918      0.31344        -0.101337      0.144050     -0.595159
Pb      11.38458     15.40498      4.10189         0.833414      0.138108      0.144686
Pb      11.72814     15.57560     16.52318        -0.481738     -0.215635      0.732796
Pb      11.66785      4.14423      8.41463         0.105635     -0.794289     -0.262874
Pb      11.77910      0.25869      8.43560         0.271318     -0.390645     -0.330136
Pb      11.82882      3.78301     12.51770        -0.549966      0.121294     -0.202246
Pb      11.55822     15.54827     12.38924         0.207798      0.013859      0.041656
Pb      11.57067      7.73943      4.18594         0.522257     -0.125344     -0.161134
Pb      11.70804      7.88283      0.04409        -0.373209     -0.212830     -0.190310
Pb      11.63703      7.79833      8.38501        -0.141796     -0.019221     -0.476840
Pb      11.49782      8.02993     12.49901         0.293286     -0.657252     -0.131102
Pb      11.86443     11.31426      4.14476        -0.384873      1.122990      0.266644
Pb      11.65587     11.61973     16.61813        -0.268496      0.903585     -0.300543
Pb      11.81632     11.90850      8.39584        -0.099088     -0.254523      0.281771
Pb      11.85428     11.79686     12.48710        -0.399662      0.258991     -0.337993
Ti       1.97527      1.96173      2.27911        -0.960468     -1.189013     -0.142238
Ti       1.87187      1.87515     14.82913        -0.575057      1.097926     -1.317542
Ti       1.87354     13.57472      2.19177        -0.285291      1.686928      0.660030
Ti       1.96627     13.64445     14.65718        -1.031676     -1.721270      0.511997
Ti      13.62305      1.94922      2.16233         0.308478     -0.322432      0.889147
Ti      13.51852      2.00953     14.74685         0.376414      0.334484     -0.697219
Ti      13.59131     13.60639      2.20148        -0.629274      0.526768     -0.738081
Ti      13.58506     13.76430     14.64745         0.524712     -1.218312     -0.011477
Ti       1.83228      2.03646      6.42557         0.354031     -0.520219     -0.151320
Ti       1.80541     13.74652      6.26849         1.156119     -0.246233     -0.591813
Ti      13.60799      1.96776      6.25105         0.326660     -0.630341      0.954314
Ti      13.63662     13.63408      6.31289        -0.393634      0.980717      0.497112
Ti       1.99001      1.99151     10.53473        -1.490260      0.059089     -0.917430
Ti       2.03995     13.71879     10.52335        -1.285455     -0.430000      0.177514
Ti      13.75356      1.85870     10.63950        -0.025727      0.634723      0.646134
Ti      13.66416     13.67322     10.53640         0.323720     -0.092834     -1.014284
Ti       1.89327      5.79973      2.10992        -0.358463      1.101454      1.602472
Ti       1.89937      5.85469     14.75567        -0.187805     -0.102905     -0.710102
Ti      13.67642      5.92120      2.24176        -0.433925     -0.626339      0.523300
Ti      13.56467      5.87817     14.79141         0.102291      0.163644     -0.180068
Ti       1.89171      5.95996      6.38982         0.320464     -1.240804     -0.684653
Ti      13.62927      5.80302      6.27454        -0.067893      0.740313     -0.441034
Ti       1.89152      5.92127     10.66578        -0.386582     -0.517637     -0.599593
Ti      13.57777      5.79438     10.65843         0.209689     -0.371431      0.344009
Ti       1.89160      9.72942      2.16377        -0.376239     -0.008117      0.487192
Ti       1.88544      9.68142     14.75365         0.595178      1.255922     -0.188495
Ti      13.64360      9.72508      2.09450         0.314769     -0.225593      0.883889
Ti      13.63602      9.87964     14.60582        -0.322182     -0.547575     -0.363053
Ti       1.85865      9.70821      6.41041         0.911598      0.130928     -0.422857
Ti      13.57758      9.79243      6.55068         0.258848     -1.667561     -0.632527
Ti       1.81600      9.70588     10.57427         0.408413     -0.216494     -0.818335
Ti      13.57929      9.69997     10.55618         0.070274      0.856152      0.083317
Ti       5.82760      1.93837      2.19455         0.491576      0.208378      0.367284
Ti       5.74876      1.94849     14.62158         1.813501      0.029416      1.420561
Ti       5.80704     13.63028      2.15099         1.254613      0.270429      0.533234
Ti       5.80680     13.67575     14.58667         1.051680     -0.683087     -0.514247
Ti       5.77529      1.99330      6.33661         0.095295     -1.705104      1.466718
Ti       5.83224     13.59302      6.35246         0.820979      1.273488      0.024935
Ti       5.76145      1.91929     10.47450        -0.490438     -0.581199      0.917081
Ti       5.90428     13.57648     10.50424        -0.713828      0.378026     -0.647325
Ti       5.78210      5.86629      2.31132         1.233204     -0.529420      0.629682
Ti       5.90457      5.79669     14.63696        -0.090485      0.836801     -1.340163
Ti       5.93154      5.79525      6.35185        -0.983178      1.005878     -0.184328
Ti       5.79050      5.76864     10.51784         0.983019     -0.328040     -0.682993
Ti       5.88719      9.70326      2.31664        -0.213227      0.521435     -1.269475
Ti       5.93415      9.78109     14.65499        -0.608081     -0.580781     -0.459677
Ti       5.79417      9.74747      6.38624        -0.550287     -0.369956     -1.089301
Ti       5.87952      9.64264     10.34261        -0.078968      0.097115      0.627475
Ti       9.76149      2.01572      2.21631        -0.182276     -1.531127     -0.820517
Ti       9.69145      1.96239     14.71155         0.117647      0.436962     -0.055193
Ti       9.67733     13.68720      2.08142         0.204386     -0.736640     -0.231887
Ti       9.73276     13.69866     14.63899        -0.057378     -0.846746      0.194073
Ti       9.72748      1.90975      6.45062         0.234946      0.230163     -0.051682
Ti       9.83400     13.60571      6.46511        -1.908988      0.331925     -1.388178
Ti       9.66381      1.90145     10.53997         0.988203      0.405097     -0.953061
Ti       9.67243     13.61862     10.50999         1.043568     -0.345824     -0.446800
Ti       9.69532      5.80492      2.31999         0.906942      0.708491     -1.151695
Ti       9.75692      5.90894     14.63074         0.001850     -0.410281     -0.624427
Ti       9.74641      5.75540      6.37421         0.684089     -0.261277     -0.111744
Ti       9.76435      5.78396     10.54843        -0.835377      0.246402      0.433699
Ti       9.68974      9.74585      2.22160         0.615341      0.298170     -2.323581
Ti       9.75597      9.75642     14.65027        -0.788915      0.353939      0.548423
Ti       9.75852      9.75248      6.41735        -0.044088     -0.211901      0.137443
Ti       9.68734      9.73787     10.43676         0.612930     -0.261911     -0.931126
O       1.88175      1.81809      0.52111         0.324027      0.557085     -0.807513
O       1.86897      1.86689     13.01617         0.247324      0.141899      0.742174
O       2.03324     13.62485      0.45464         0.057374     -0.214158     -0.632947
O       1.84436     13.66301     12.88346         0.536378      0.189047     -0.230503
O      13.63754      1.70243      0.38542        -0.225957      0.796803     -0.123427
O      13.91633      2.09603     12.96158        -1.343221     -0.536909      0.956900
O      13.44571     13.43229      0.38332         0.767345      0.600488      0.417573
O      13.60940     13.68381     12.87535        -0.526327     -0.043723     -0.346974
O       1.80206      2.06780      4.63794         0.381960     -0.090986     -0.766453
O       1.76314     13.73554      4.50771         0.259496     -0.388210      0.344672
O      13.62788      1.90899      4.49205         0.012776      0.264988     -0.183259
O      13.73036     13.54533      4.54575        -0.432769     -0.131287     -0.123955
O       1.89633      2.07357      8.69815         0.171278     -0.297591      0.980605
O       1.86375     13.79091      8.76533         0.421178     -0.685132     -0.224969
O      13.73198      1.92870      8.88998        -0.484779     -0.149765     -1.096241
O      13.53378     13.80832      8.68632        -0.037452     -0.513496      0.625015
O       2.00286      5.78361      0.36972        -0.209256      0.489793     -0.543458
O       1.88650      5.84306     12.93894         0.147533     -0.410077      0.525543
O      13.58740      5.91026      0.45009         0.388264     -0.081177     -0.508329
O      13.62846      5.78898     13.00850        -0.165056      0.051510     -0.375493
O       1.94873      5.91126      4.56446        -0.172466     -0.103029      0.593727
O      13.61741      5.85855      4.46604        -0.153837     -0.007727      0.559666
O       1.80019      5.88728      8.86410         0.147235      0.218470      0.024983
O      13.64297      5.79238      8.86709        -0.023885      0.048484     -0.177468
O       1.73471      9.84997      0.42343        -0.132179     -0.094380     -0.856386
O       1.82034      9.85266     12.98788         0.311752     -0.516273     -0.620455
O      13.61521      9.85990      0.32285         0.041190     -0.190750     -0.083055
O      13.64814      9.74980     12.75367        -0.434359      0.330145      0.749450
O       2.04327      9.72530      4.63961        -0.333828     -0.148459     -0.072937
O      13.53280      9.72571      4.76877        -0.461423      0.373070     -0.607265
O       1.69676      9.52467      8.79939         0.616646      0.446044     -0.462883
O      13.68149      9.72770      8.77102        -0.005974     -0.361958     -0.607642
O       5.94191      2.06355      0.46863        -0.513303     -0.311515     -0.867007
O       5.82384      1.90067     12.90704        -0.384016      0.400682     -1.418561
O       5.77623     13.65182      0.39022        -0.008463     -0.147926     -0.929632
O       5.93771     13.48560     12.76020        -0.694395      0.625440      1.382545
O       5.81934      1.78873      4.65895        -0.157335      0.630006     -2.209914
O       6.07489     13.76393      4.64666        -0.321213     -0.663430     -1.200882
O       5.57088      1.91178      8.71653         1.009764      0.275156      0.035961
O       5.77024     13.50723      8.70947        -0.137860      0.427504      0.367487
O       5.85196      5.78581      0.53565        -0.030246      0.338970     -0.766596
O       5.67567      5.82108     12.81311         0.571359      0.046053      1.138896
O       5.81001      5.89269      4.55686        -0.001340     -0.456953      0.751898
O       5.92851      5.77481      8.69244        -0.449102     -0.497079      0.196708
O       5.77200      9.55293      0.51207         0.364180      0.485519     -0.031738
O       5.87049      9.65342     12.83421        -0.065375     -0.026975      0.660447
O       5.84345      9.71339      4.54123        -0.108493      0.204466     -0.040242
O       5.99438      9.79467      8.58985        -0.290215     -0.525063      0.297455
O       9.72853      1.93305      0.39418        -0.289791      0.090282      0.464626
O       9.59769      2.07062     12.92570         0.203159     -0.614223     -0.706619
O       9.76085     13.73336      0.26501        -0.835504     -0.094227      0.757331
O       9.71731     13.60059     12.83367        -0.050721     -0.063947      0.154818
O       9.88350      1.96530      4.64528        -0.361959      0.082877     -0.042227
O       9.58917     13.71077      4.58411         0.505591     -0.344398      0.736093
O       9.76311      1.82913      8.65784        -0.194726      0.296331      1.634475
O       9.79512     13.52314      8.73357         0.100681      0.299836     -0.230966
O       9.63099      5.73689      0.44510         0.076575      0.243457      0.613909
O       9.62778      5.75479     12.83315         0.627559      0.467432      0.690887
O       9.92447      5.66406      4.57734        -0.308794      0.674984     -0.232570
O       9.83215      5.78585      8.73954        -0.106820     -0.009179      0.125200
O       9.65655      9.64157      0.37412         0.603004      0.308344      0.764655
O       9.70583      9.73317     12.83528         0.218983     -0.135883      0.237815
O       9.70701      9.53064      4.53170         0.513021      1.062711      0.479396
O       9.61597      9.64097      8.61553         0.078316     -0.063990      0.510172
O       3.84737      2.04348      2.59956        -0.116879     -0.074261     -0.226722
O       3.88347      1.94386     14.95180        -0.597913      0.335614      0.273292
O       4.02778     13.65659      2.64630        -1.886579     -0.231599     -0.072433
O       3.90244     13.67260     14.95527        -0.062311      0.167805     -0.408363
O      15.49688      1.85125      2.54393         1.082330      0.290656     -0.007832
O      15.56636      2.05000     15.11556         0.456660     -1.012551     -0.137135
O      15.55007     13.54016      2.39518         0.141978     -0.025932     -0.120022
O      15.53978     13.69529     14.95524         0.103419      0.012084      0.271203
O       3.85052      1.90963      6.68965        -0.543070      0.371675     -0.336132
O       3.85766     13.70606      6.54199        -0.332187     -0.619942      0.261748
O      15.56710      1.89716      6.63302        -0.517542      0.076259      0.297765
O      15.55766     13.66561      6.69255         0.162498     -0.294077     -0.000605
O       3.82255      1.86831     10.89278         0.568935     -0.086394      0.370098
O       3.86943     13.56186     10.81903         0.766851      0.283818      0.155363
O      15.60032      1.86943     10.82577         1.160467     -0.104333      0.178125
O      15.55164     13.58065     10.80566         0.651212      0.152089      0.031451
O       3.94033      5.98720      2.61606        -1.113865     -0.589194     -0.650921
O       3.83509      5.87931     14.96295         0.534202     -0.387683      0.177094
O       0.01432      5.87891      2.54279        -0.156318      0.316830     -0.448867
O      15.46917      5.73840     15.01239         1.224261      0.433883      0.421248
O       3.81341      5.81860      6.69043         0.432118     -0.290005      0.189405
O      15.53233      5.90206      6.65898         0.122285      0.108033      0.131328
O       3.80914      5.97457     10.85128         0.155738     -0.997232     -0.179535
O      15.55137      5.81469     10.94590        -0.113410      0.310088      0.194619
O       3.77975      9.78591      2.35336         0.998802     -0.271911      0.693628
O       3.81045      9.74714     15.14320         0.116055     -0.201709     -0.432264
O      15.54322      9.74069      2.76583        -0.173921      0.174435     -1.073957
O      15.45391      9.86913     14.94957         1.013789     -0.323449      0.123848
O       3.91819      9.69008      6.70508        -0.212806      0.355466      0.479299
O      15.58336      9.66596      6.53449         0.061422      0.248965      0.707450
O       3.92869      9.57622     10.62351         0.469420      0.504115      0.368505
O      15.56890      9.86145     10.78887        -0.426841     -0.350444      0.558751
O       7.77910      1.95327      2.59845         0.444896      0.373798     -0.365204
O       7.71334      1.95821     14.91700         0.338833      0.196374      0.348937
O       7.76323     13.73763      2.41181        -0.097868     -0.063954      0.003043
O       7.75315     13.63847     14.93049        -0.461004      0.104373      0.111843
O       7.75003      1.90412      6.67605         0.354393      0.503168      0.173907
O       7.84317     13.72876      6.80132        -0.712222     -0.793695     -0.050249
O       7.67472      1.90532     10.77686         0.830951      0.386324     -0.201707
O       7.75108     13.55583     10.79713         0.513126      0.075324     -0.048826
O       7.90494      5.64708      2.74295        -0.995547      0.801613     -0.560524
O       7.82578      5.90725     14.86106        -1.232425     -0.302179      0.484199
O       7.81161      5.79108      6.68232        -0.524782      0.012880     -0.280597
O       7.77214      5.89144     10.74395        -0.087376     -0.663135      0.114037
O       7.86198      9.68406      2.47294        -1.506155      0.059828      0.721980
O       7.74634      9.75040     15.02883        -0.113240      0.011412     -0.206936
O       7.80363      9.90743      6.50655        -0.549063     -1.349529      0.181184
O       7.85701      9.53664     10.77071        -1.635582      0.112104      0.039632
O      11.71684      1.93227      2.51396        -0.686882     -0.094534     -0.170866
O      11.59762      1.91481     14.91921         0.906149     -0.277774     -0.172648
O      11.58001     13.76176      2.29393         0.374332     -0.666807      0.930493
O      11.61407     13.56867     15.04482         0.639398      0.909764     -0.803994
O      11.77761      1.90201      6.65010        -1.139591      0.150506      0.267784
O      11.66011     13.56485      6.55791         1.168363     -0.213021      0.220070
O      11.62929      1.83378     10.89990        -0.396587     -0.110064     -0.049675
O      11.58878     13.76824     10.86905         0.482780     -0.666547     -0.029572
O      11.68086      5.84775      2.27191         0.341466     -0.070755      0.840528
O      11.65935      5.98080     15.05991        -0.327962     -0.312682      0.123219
O      11.71531      5.73221      6.70097        -0.044525      0.298427      0.124664
O      11.69759      5.68794     10.84252         0.021731      0.219787      0.168362
O      11.70627      9.68040      2.56955         0.076706      0.251597     -0.444185
O      11.65704      9.68152     14.91402         0.102894      0.218103     -0.011657
O      11.59239      9.78824      6.82288         0.966854      0.120926     -0.330483
O      11.62374      9.59450     10.67807         0.635243      0.661156      0.390861
O       1.79530      3.98100      2.45661         0.683973     -1.230827      0.205533
O       1.85707      3.91923     15.14594         0.720121     -0.648805     -0.582989
O       1.91925     15.57039      2.54337         0.289264      0.513859      0.039123
O       1.92740     15.57156     15.12595        -0.130143      0.451593     -0.643359
O      13.70613      3.85236      2.46103        -0.494687      0.151103     -0.390494
O      13.50604      3.85892     15.18553         0.013435      0.392357     -0.164567
O      13.58676     15.47469      2.49832         0.373043      0.235792      0.021426
O      13.64512      0.02027     15.00873        -0.420120      0.011928     -0.256583
O       1.74968      3.93311      6.70452         0.610549      0.021805      0.021883
O       1.91783     15.60641      6.70896        -0.302359      0.053193     -0.354892
O      13.60410      3.88397      6.68660         0.552274     -0.111818     -0.292985
O      13.63636     15.56622      6.58381         0.108803      0.048190      0.057741
O       1.86823      3.85652     10.92229         0.610622      0.169198      0.190219
O       1.94242     15.58842     10.95948         0.373648     -0.085611     -0.457562
O      13.66304      3.83403     10.99738        -0.038676      0.534890     -0.331189
O      13.64973     15.55425     10.84583        -0.226319      0.526729      0.499012
O       1.81543      7.85904      2.47812         0.471403     -0.661797     -0.056378
O       1.83284      7.79532     14.96419        -0.387061     -0.244025      0.391572
O      13.63206      7.85156      2.39144         0.190456     -0.472050      0.202473
O      13.68096      7.86750     15.04689        -0.053565     -0.408747     -0.129439
O       2.05898      7.78320      6.68326        -0.740524      0.414702      0.006857
O      13.53939      7.77415      6.67384        -0.004476     -0.205971      0.654041
O       1.82443      7.80707     11.04528        -0.045430      0.143783     -0.226019
O      13.62647      7.80474     10.86955         0.326557     -0.521399     -0.083950
O       1.92178     11.69988      2.62414        -0.026756     -0.026232     -0.318409
O       1.82431     11.73990     14.92051         0.414003      0.431977      0.496842
O      13.59039     11.59209      2.52247        -0.140951      0.637644      0.335819
O      13.50589     11.78438     14.82789         0.135558     -1.110461      0.165401
O       1.94656     11.70141      6.65066        -0.052686      0.068925      0.206116
O      13.69508     11.67073      6.77815        -0.196227      0.696370     -0.042565
O       2.07040     11.59969     10.87575        -0.513169      0.667124     -0.419716
O      13.51262     11.75859     10.66230        -0.496795     -0.618942      0.650694
O       5.78518      3.91293      2.63701         0.010614      0.067147      0.231709
O       5.90720      3.96044     14.99936        -0.732438     -0.442457     -0.322994
O       5.80727      0.04109      2.43639        -0.277879      0.067625      0.098021
O       5.88369      0.02888     14.86518        -0.638074     -0.671743      0.154346
O       5.71724      3.86073      6.60380         0.501087      0.728267      0.140843
O       5.85295     15.55592      6.65426        -0.316467      0.505814      0.668594
O       5.72687      3.79438     10.82068        -0.086125      0.389176     -0.148209
O       5.92566     15.52076     10.99249        -1.247018      0.167036     -0.940841
O       5.99381      7.80995      2.59866        -0.336320     -0.766353     -0.064612
O       5.82029      7.76417     15.10458        -0.110874     -0.163182     -0.599810
O       5.83448      7.77179      6.61537         0.364550     -0.102647      0.308237
O       5.78228      7.62622     10.68606         0.373306      2.123836      0.207512
O       5.85821     11.66133      2.42683         0.162333     -0.105768      0.415257
O       5.83564     11.67512     14.87684        -0.369193      0.254160      0.553536
O       5.78595     11.70260      6.63468        -0.052793     -0.360560      0.026513
O       5.93864     11.63588     10.76892        -0.514427     -1.187104     -0.220946
O       9.85109      3.85024      2.53821        -0.224495     -0.024915     -0.027939
O       9.72273      3.90331     14.99347        -0.023693      0.322635      0.072444
O       9.67869      0.02103      2.53400         0.093453      0.343280     -0.267148
O       9.65735     15.60060     14.83779         0.104076      0.280210      0.409852
O       9.68360      3.90406      6.77226         0.205007     -1.199379     -0.017472
O       9.71056     15.54155      6.64165         0.415522      1.015060      0.348251
O       9.76275      3.82925     10.90286        -0.578982     -0.701590     -0.733304
O       9.57564     15.50648     10.86889         0.211151      1.315276     -0.123872
O       9.80602      7.85134      2.45348        -0.469938     -1.843948      0.663955
O       9.63147      7.83221     14.84192         0.399157     -0.353756      0.231512
O       9.83030      7.69955      6.61788        -0.581834      0.526366      0.079273
O       9.85541      7.70956     10.79706        -0.392280      0.088351      0.308774
O       9.56614     11.72628      2.38221         0.670226     -0.234823      0.263672
O       9.73720     11.71299     14.95707        -0.332816     -0.581942      0.092001
O       9.62726     11.62614      6.71912         0.880419      0.744724     -0.740383
O       9.67476     11.60606     10.81921         0.313104      0.371772     -0.358196
