  # total energy = -7881.50409959 
CRSYTAL
PRIMVEC
    15.6080000000000005    0.0000000000000000    0.0000000000000000
     0.0000000000000000   15.6080000000000005    0.0000000000000000
     0.0000000000000000    0.0000000000000000   16.6239999999999988
PRESSURE
-1.22538 -1.30393 -1.64192 -0.340228 0.345571 -0.04067
PRIMCOORD
320 1
Pb       4.00567      3.87496      4.11153        -0.020274      0.333323      0.094294
Pb       4.08473      4.03204      0.14408        -0.078730     -0.060690     -0.376248
Pb       3.90511      0.03029      3.96900        -0.047746     -0.358221      0.216868
Pb       3.78368     15.57216     16.58534         0.384230      0.017214      0.127739
Pb       0.07602      3.83161      4.17630        -0.052295      0.005792     -0.424139
Pb      15.54073      3.78773     16.59794         0.311061      0.084876      0.199408
Pb      15.55858     15.49497      4.00228         0.197757      0.510070      0.152485
Pb      15.55197     15.57360     16.56940        -0.087490      0.005761      0.193896
Pb       3.66037      3.72930      8.31401         0.828971      0.411734     -0.300944
Pb       3.86026      0.04189      8.19931         0.003031     -0.041883     -0.135105
Pb      15.47361      3.80290      8.29224         0.446837     -0.022024     -0.179994
Pb       0.03524     15.56662      8.22329         0.194071      0.079620     -0.556656
Pb       3.80922      3.90024     12.48152         0.203689      0.047598     -0.435582
Pb       3.83439     15.45219     12.44143         0.371805      0.234072     -0.050673
Pb       0.05635      3.92707     12.50995        -0.284984      0.084540     -0.286617
Pb       0.03039      0.25358     12.69708        -0.000441     -0.269723     -0.393407
Pb       3.79921      7.89907      4.18336         0.058284     -0.103395     -0.374554
Pb       3.84873      7.75038     16.55062        -0.055749     -0.182336      0.151031
Pb       0.11324      7.89279      4.24145        -0.080232     -0.326367     -0.558810
Pb       0.01146      7.75271     16.58216        -0.204952     -0.218056     -0.547328
Pb       3.90741      7.67863      8.26101        -0.071015     -0.002660      0.079158
Pb      15.29686      7.71818      8.62940         0.484348     -0.268085     -0.540856
Pb       3.93323      7.84207     12.41105         0.280994     -0.405224     -0.522446
Pb      15.53052      7.94134     12.59438         0.035741     -0.409944      0.016801
Pb       3.81289     11.70249      4.03117         0.397680     -0.277591      0.133065
Pb       3.85428     11.70011     16.51587         0.097314     -0.051585      0.406829
Pb      15.54654     11.66832      4.02811        -0.050085     -0.147628      0.184862
Pb      15.55055     11.81040     16.57094        -0.272909     -0.260902     -0.325153
Pb       3.82409     11.72950      8.12566         0.504106     -0.271158      0.539409
Pb      15.59953     11.62067      8.26864         0.212492      0.621522     -0.147301
Pb       3.98193     11.63042     12.31432        -0.235395      0.311575     -0.221105
Pb       0.18759     11.62268     12.38708        -0.063003     -0.007033      0.338237
Pb       7.80248      3.66521      4.19018        -0.223744      0.292356     -0.161146
Pb       7.80578      4.00221      0.01924        -0.305236      0.451960     -0.207307
Pb       7.70926     15.46475      4.05790         0.435416      0.222039      0.005676
Pb       7.85238      0.18037      0.08269        -0.032095     -0.403286     -0.316280
Pb       7.61126      3.90879      8.39405         0.245418     -0.392976     -0.303626
Pb       7.89260     15.58359      8.27648        -0.271064      0.076966     -0.304785
Pb       7.72790      3.71074     12.42856         0.053931     -0.113242     -0.461435
Pb       7.65483     15.54480     12.52772         0.331303      0.257168     -0.726374
Pb       7.75822      7.84076      4.18043         0.097420      0.353134     -0.221470
Pb       7.67382      7.90458     16.58427         0.385538     -0.462900     -0.272849
Pb       7.83839      7.72556      8.21125        -0.043231     -0.025076      0.338743
Pb       7.76457      7.63398     12.43788        -0.149920      0.201820     -0.810711
Pb       7.94593     11.74434      4.27390        -0.403477     -0.377529     -0.573133
Pb       7.61561     11.75497     16.58007         0.522715      0.084048      0.168161
Pb       7.70268     11.75524      8.17929         0.229315     -0.065669      0.139025
Pb       7.73287     11.52195     12.39437        -0.372696      0.768629     -0.220751
Pb      11.87807      3.82245      4.38773        -0.219801     -0.062432     -0.977060
Pb      11.79036      4.07766      0.20601        -0.361427     -0.184063     -0.607839
Pb      11.57001     15.43395      4.16603        -0.103552      0.291524     -0.354865
Pb      11.58019     15.50389      0.01790         0.012932      0.273456     -0.527413
Pb      11.73729      4.14545      8.48283         0.267807     -0.389801     -0.318440
Pb      11.65703      0.17342      8.32717         0.007279     -0.337499     -0.413970
Pb      11.80760      3.82311     12.62376        -0.112472     -0.073627     -0.930648
Pb      11.68387     15.60792     12.43442        -0.346473      0.138703      0.074280
Pb      11.77630      7.66425      4.16758        -0.274140      0.418935     -0.253394
Pb      11.50801      7.81428      0.02245         0.149603     -0.345927     -0.270066
Pb      11.60223      7.87348      8.32664         0.050103     -0.171022      0.144212
Pb      11.44040      8.00904     12.67845         0.760263     -0.942133     -0.799259
Pb      11.79103     11.30598      4.24270        -0.236991      0.594947     -0.066086
Pb      11.71579     11.72902     16.52206        -0.476125      0.378843     -0.403790
Pb      11.95209     11.96008      8.53455        -0.564121     -0.297397     -0.346483
Pb      11.55972     11.88756     12.38504         0.568241     -0.627944      0.749320
Ti       1.94357      1.97122      2.11411        -0.779337     -0.593637      0.241887
Ti       1.96047      1.93305     14.80775         0.569588     -0.029432     -0.406698
Ti       1.88119     13.62853      2.11757         0.846829      0.494255     -0.072594
Ti       1.96149     13.54035     14.73969        -0.135326      0.921753     -1.384103
Ti      13.57827      1.90298      2.09999         0.369022     -0.758401      0.935931
Ti      13.50459      1.94399     14.73470        -0.855243     -0.787619      0.064602
Ti      13.54872     13.58610      2.17733         0.089186      0.768504     -0.376965
Ti      13.63259     13.66561     14.57627        -0.898429      0.181985      0.000456
Ti       1.96831      2.00022      6.12821        -0.564368     -1.241639      1.032390
Ti       1.96890     13.63408      6.32419        -0.601588      0.594187      0.250737
Ti      13.65848      1.88777      6.26462         0.854492     -0.050043     -0.592881
Ti      13.64715     13.66612      6.29782         0.299690     -0.450541     -0.640517
Ti       1.94567      1.90676     10.53072         0.310163      0.425456     -0.151374
Ti       1.88448     13.72299     10.53674         1.629106     -1.089081     -0.365683
Ti      13.68326      1.81774     10.52738        -0.227007      1.242161      0.567234
Ti      13.83595     13.62712     10.62545        -0.863001      0.235812     -0.294900
Ti       1.93079      5.78942      2.23240         0.350706      0.414799     -0.180737
Ti       1.99450      5.74493     14.79141        -0.291827      0.052347     -0.554114
Ti      13.67144      5.80434      2.16903         0.176005      0.284419      0.281771
Ti      13.67546      5.80742     14.63845         0.088112      1.043489      1.002759
Ti       1.98711      5.85444      6.32698         0.178822     -0.265993     -0.085217
Ti      13.78717      5.75601      6.35524         0.078728      0.174445      0.039566
Ti       1.96219      5.79579     10.39143         0.883812      0.282637     -0.187090
Ti      13.69997      5.79228     10.61814        -1.049204     -0.531077     -0.502459
Ti       1.88565      9.69431      2.07060         0.824701     -0.114018      0.591224
Ti       1.94111      9.72008     14.67095        -0.726352     -0.549820      0.141304
Ti      13.63926      9.64563      2.00429        -0.219943     -0.099378      0.606048
Ti      13.58232      9.79715     14.54704         0.861463     -0.747248      0.942890
Ti       1.91076      9.74701      6.34161         1.247149     -0.493192     -0.684121
Ti      13.65480      9.68074      6.50059        -0.376897      0.433933     -1.182122
Ti       1.96246      9.63650     10.47164         0.906991      0.114853     -0.349544
Ti      13.61305      9.73834     10.54412        -0.690273      0.223988      0.269805
Ti       5.83479      1.88813      2.15437         0.201253      0.017591      0.751508
Ti       5.79240      1.98220     14.74765         0.894819     -0.050576     -0.726002
Ti       5.74889     13.65544      2.03377         1.109911     -0.262302      1.595948
Ti       5.81508     13.68872     14.58607         0.080156      0.493516      0.405145
Ti       5.83094      1.94500      6.36456         0.104719      0.016378      0.069672
Ti       5.81894     13.72177      6.24707         0.149282     -0.472293      1.111582
Ti       5.83008      1.86133     10.48258         0.503786      0.755839     -0.223654
Ti       5.86002     13.69347     10.36255        -0.042527     -0.523668      1.733324
Ti       5.86405      5.89545      2.30675         0.051134     -0.505772     -0.632514
Ti       5.86864      5.91697     14.50506         0.182469     -0.981655      1.624501
Ti       5.90580      5.81010      6.38786        -0.617906     -0.975297     -0.869785
Ti       5.89196      5.74330     10.38623        -0.682197      0.892750      1.132530
Ti       5.76902      9.79409      2.11330         0.573562      0.011234      1.132461
Ti       5.78507      9.80331     14.64421         0.367303     -0.481060     -0.396229
Ti       5.81004      9.76774      6.33947         0.106109      0.533864     -0.919220
Ti       5.85542      9.71247     10.35299        -0.173172     -0.388342      0.919581
Ti       9.71515      1.89068      2.25307         0.434092     -0.243544      1.437331
Ti       9.61796      1.96600     14.54415         1.461279     -0.937345      0.284224
Ti       9.68691     13.54913      2.12890        -0.285596      0.498777      0.905277
Ti       9.67080     13.64628     14.59798         0.778891      0.400207      0.305272
Ti       9.71790      1.94925      6.36564        -0.670361     -0.884536     -0.910229
Ti       9.76520     13.55629      6.36360         0.311063      0.507043     -0.847157
Ti       9.81812      2.01518     10.40968        -0.992446     -0.643564      1.376590
Ti       9.78713     13.64897     10.48037        -0.920145      0.767318     -0.236959
Ti       9.70149      5.79203      2.30182        -0.250317      0.073497     -0.319770
Ti       9.78167      5.76811     14.52534        -0.605220      0.678718      0.896479
Ti       9.82517      5.72839      6.32404        -0.552724      0.474743      0.917904
Ti       9.82006      5.84319     10.46007        -0.325620      0.259285      0.156929
Ti       9.73611      9.73322      2.20788        -0.782052     -0.198817      0.509144
Ti       9.69353      9.75345     14.65590        -0.150866      0.076281      0.720810
Ti       9.72601      9.70159      6.42899        -0.027249      0.054862     -0.636803
Ti       9.69795      9.81389     10.46139         0.254759     -0.963384     -1.265592
O       1.93782      1.92135      0.33827         0.098651     -0.229167     -0.702784
O       1.97135      2.01870     12.96186        -0.163623     -0.176044     -0.264833
O       1.94152     13.64646      0.31811        -0.396759     -0.463587      0.079845
O       2.07540     13.51637     12.94403        -0.187805      0.335139      0.003546
O      13.55152      1.83856      0.28998        -0.180219      0.127702      0.290640
O      13.58623      1.83002     12.90866         0.336095      0.422658      0.371820
O      13.69907     13.63951      0.33119         0.115708     -0.629946      0.709933
O      13.40979     13.56201     12.76427         0.788233      0.391937      0.977590
O       1.92315      1.98358      4.35859         0.130308     -0.048708     -0.317800
O       2.03047     13.58522      4.57802        -0.194908     -0.015146     -1.243118
O      13.71361      1.92858      4.44333        -0.139262      0.507546      0.863012
O      13.60059     13.55010      4.46953         0.074569      0.105097      0.544667
O       1.96236      1.78607      8.76967         0.129638      0.104445     -0.021612
O       1.74035     13.62105      8.74414         0.245268      0.265473      0.535167
O      13.76623      1.91920      8.76493        -0.201181     -0.192848     -0.492040
O      13.81027     13.61489      8.79469         0.070939      0.051139      0.322174
O       2.09951      5.87309      0.42646        -0.031573     -0.067509     -0.132772
O       1.91991      5.60967     13.00329         0.125346     -0.137350     -0.638180
O      13.49871      5.83473      0.34866         0.266857     -0.322780      0.886867
O      13.77301      5.73562     12.86318         0.146482      0.040070     -0.858691
O       1.91211      5.78325      4.49756        -0.049867     -0.165317      0.095964
O      13.81970      5.68033      4.54967        -0.407544      0.131696     -0.011047
O       2.03618      5.95655      8.58158        -0.195408     -0.234632      1.139024
O      13.65995      5.72691      8.70496         0.409793     -0.185757      0.940856
O       1.98762      9.56773      0.29417        -0.175868      0.316732     -0.025223
O       2.02554      9.81518     12.89452        -0.334211     -0.590922     -0.272081
O      13.55036      9.62612      0.23593         0.272935      0.340451      0.603843
O      13.70011      9.61538     12.75983        -0.262307     -0.114718     -0.520113
O       1.90313      9.73123      4.48446        -0.160403      0.129934      0.479575
O      13.60840      9.70061      4.63350         0.466310     -0.296346      1.132868
O       2.07063      9.46522      8.68211        -0.429613      0.718031      0.474046
O      13.66069      9.59568      8.70435         0.411212      0.470446     -0.092954
O       5.90345      1.88323      0.40087         0.119359      0.176546     -1.093227
O       6.04670      1.93146     12.92851        -0.322811      0.157564     -0.013526
O       5.86936     13.71181      0.29590        -0.083470     -0.435217     -0.772643
O       5.75205     13.65337     12.79243         0.301380      0.044756      0.468253
O       5.88552      1.96688      4.57940        -0.280808     -0.042855     -0.507263
O       5.74730     13.71806      4.52433        -0.014885     -0.315236     -1.227320
O       5.73892      1.96758      8.69111         0.220618     -0.346864     -0.320860
O       5.88454     13.63860      8.63055         0.060953      0.100754     -0.347416
O       5.84090      5.69633      0.40149         0.188289      0.624242      1.209488
O       5.88461      5.90425     12.75167         0.216912     -0.281552     -0.289789
O       6.02541      5.72402      4.53586        -0.504659      0.082212      0.527129
O       5.81883      5.85478      8.62545         0.287334     -0.428906     -0.644813
O       5.85606      9.63993      0.32697        -0.161747      0.088803     -0.384435
O       5.84953      9.83608     12.85210         0.094909     -0.224634      0.473185
O       5.90822      9.82761      4.52865        -0.378563     -0.552647      0.863280
O       5.78124      9.77637      8.60495         0.142905     -0.023717     -0.645800
O       9.72666      1.85605      0.51919        -0.052289      0.435214     -1.528223
O       9.66510      1.82204     12.77615        -0.104465      0.082698      0.151019
O       9.65023     13.40433      0.36385         0.131094      0.092683     -0.193409
O       9.89048     13.77324     12.81754        -0.081087     -0.470961     -0.261969
O       9.54487      1.65121      4.49725         0.807569      0.889938      1.997356
O       9.88448     13.64348      4.45894        -0.504853     -0.035461      1.673484
O       9.78621      1.90257      8.63548         0.250134      0.162415     -0.777920
O       9.73652     13.40272      8.65688         0.119617      0.331258      0.487085
O       9.82806      5.81863      0.47105         0.259686     -0.493096      0.313573
O       9.66238      6.06203     12.77135         0.586354     -0.151580     -0.244079
O       9.72663      5.85471      4.57465         0.177439      0.061514     -0.411223
O       9.80919      5.70339      8.63428         0.578543      0.098896      0.477342
O       9.69722      9.77051      0.42249         0.301229     -0.002378     -0.240783
O       9.77186      9.48587     12.87599        -0.825776      0.848201     -0.324180
O       9.74763      9.56388      4.56730         0.008588      0.478349      0.778194
O       9.67446      9.86027      8.63958         0.230913     -0.130001      0.629439
O       3.86904      1.78287      2.35504         0.051910      0.268985      0.288927
O       4.01961      1.77582     15.01956        -1.761219      0.161138     -0.072882
O       3.92980     13.86307      2.36840        -1.585905     -0.773191      0.125761
O       3.83378     13.57644     14.98147         1.104469      0.111458      0.179952
O      15.57549      2.00076      2.29600        -0.412117      0.062352      0.271146
O       0.00166      1.82210     15.01415        -0.237354      0.580541     -0.327251
O       0.04758     13.53863      2.45710        -0.628493     -0.316289      0.108195
O      15.57760     13.63052     14.87723        -0.665625     -0.262421      0.053370
O       3.87348      1.98569      6.52384         0.251382     -0.540625      0.348109
O       3.89298     13.54384      6.63608        -0.113248      0.474661      0.224060
O       0.08272      1.92123      6.48959        -0.947020     -0.348120      0.486098
O      15.57727     13.75113      6.56207        -0.202290     -0.485084      0.081335
O       4.02669      1.89800     10.84377        -1.909828      0.211122      0.436534
O       3.93983     13.75813     10.72876        -0.711387     -0.349837     -0.093827
O       0.00154      1.94320     10.85060         0.826879     -0.022268      0.366707
O       0.11558     13.64768     11.09923        -1.213711      0.201599     -0.458835
O       3.89353      5.90885      2.59373         0.548567     -0.391412     -0.091127
O       3.95447      5.89006     14.93320         0.305504      0.128964      0.008310
O       0.03540      5.75289      2.44309        -0.916180     -0.029192     -0.255463
O       0.06286      5.77679     15.10633        -0.226880     -1.033905     -0.015795
O       3.90475      5.56250      6.67541         0.301717      0.888215     -0.563931
O       0.08688      5.70906      6.64663        -0.357213      0.313820      0.153979
O       3.98223      5.76812     10.79879        -0.571260      0.049533      0.082267
O       0.07563      5.62488     10.70948         0.302042      0.544800      0.152852
O       3.86860      9.62116      2.48621         0.025457     -0.054450     -0.089279
O       3.88086      9.71034     14.91565         0.158122     -0.186180      0.162932
O      15.59736      9.77714      2.33982        -0.622591     -0.050904      0.129764
O      15.52551      9.74709     14.82978         1.069951     -0.112570      0.319718
O       3.87946      9.95589      6.49891         0.384338     -0.681442      0.275474
O       0.13104      9.75965      6.62080        -2.175668     -0.532692      0.381270
O       3.97528      9.72534     10.80927        -0.801788     -0.131421      0.065622
O       0.04858      9.65288     10.80371         0.260961     -0.230104     -0.088392
O       7.74433      1.77362      2.50039         0.113396      0.715777     -0.115134
O       7.78985      1.99606     15.04389         0.218818     -0.042629      0.186547
O       7.70338     13.59661      2.42848         0.801071     -0.778679      0.161493
O       7.82799     13.57895     14.84781        -1.096611     -0.445436     -0.085536
O       7.76627      1.91330      6.68934         1.123763     -0.105449      0.161538
O       7.77336     13.68609      6.60305         0.883892     -0.032555     -0.119947
O       7.86264      1.87099     10.76341         0.160063      0.115030     -0.078218
O       7.87883     13.72365     10.81097        -0.889732     -0.443248     -0.195003
O       7.80719      5.62857      2.41342        -0.024995      0.509548      0.186560
O       7.85755      5.82065     14.86567        -0.365313     -0.190300      0.322944
O       7.88581      5.70244      6.75624        -0.510663      0.837969     -0.320219
O       7.85875      5.87637     10.62231         0.117064     -0.067793      0.429297
O       7.65487      9.85193      2.51658         1.510597     -0.246705     -0.209886
O       7.78150      9.83261     14.99041         0.384955     -0.144969     -0.255048
O       7.76894      9.56425      6.65053        -0.043572      0.378125     -0.177859
O       7.80512      9.81907     10.78843        -0.354336     -0.472724     -0.039899
O      11.64663      1.67962      2.65340         0.510663      0.777240     -0.753034
O      11.57097      1.91421     14.85099         1.004798      0.195415      0.181279
O      11.71845     13.79211      2.21219        -0.197694     -0.462549      0.397941
O      11.61878     13.68470     15.05891         0.970319     -0.491634     -0.011602
O      11.82227      1.99303      6.59890        -1.406459     -0.284360     -0.117039
O      11.71416     13.53323      6.74114         0.084185      0.150297     -0.186694
O      11.69064      1.84987     10.76616         1.041718      0.133757      0.025519
O      11.77797     13.43307     10.68448        -0.044524      0.355683     -0.307883
O      11.77208      5.86144      2.66376        -0.401592     -0.503883     -0.418938
O      11.73937      5.82676     14.87491        -0.413522      0.036887     -0.087710
O      11.80901      5.71577      6.59621        -0.806795      0.109344     -0.170197
O      11.74723      5.76460     10.73615         0.400260      0.021509      0.167478
O      11.68770      9.62727      2.50157         0.407804     -0.027095     -0.233651
O      11.73538      9.57451     14.85915        -0.469700      0.045102      0.047425
O      11.70608      9.71363      6.70338         0.620792      0.054488     -0.141659
O      11.68205      9.85676     10.72013         0.964133     -0.453772      0.210803
O       1.95568      3.86814      2.35691         0.432672      0.280199      0.374207
O       2.18981      3.77434     15.06389        -0.692419      0.631748      0.150173
O       1.80969     15.57550      2.35515         0.157254     -0.363728      0.388174
O       1.93087     15.54243     15.02321         0.067111      0.053898     -0.265138
O      13.50269      3.80615      2.27803        -0.103866      0.496617      0.269189
O      13.60531      3.83658     15.00497         0.276903     -0.064291      0.016535
O      13.80835     15.55771      2.52771        -0.472685     -0.533752     -0.663579
O      13.51691     15.55732     14.96269         0.668768     -0.326189     -0.364835
O       1.95253      3.77809      6.59342        -0.234301      0.774157      0.148987
O       1.97461     15.55945      6.69293         0.272406      0.147819     -0.313307
O      13.77136      3.84062      6.68708        -0.256075     -0.165176     -0.321914
O      13.60534     15.58231      6.58538         0.061041     -0.121318      0.127906
O       2.18998      3.86672     10.51455        -0.686221     -0.146459      1.038123
O       1.96349      0.01827     10.89184        -0.140664     -0.447531      0.176440
O      13.70040      3.83210     10.93352        -0.327338     -0.189365     -0.169689
O      13.73515     15.56393     10.93566        -0.006367     -0.483513     -0.412061
O       1.90158      7.81489      2.49961        -0.244521     -0.363335      0.331767
O       1.91844      7.67509     14.95926         0.070853      1.313759     -0.122230
O      13.69255      7.73557      2.47750         0.161944      0.460632     -0.090321
O      13.88368      7.64732     14.91762        -0.613534      0.836543     -0.456143
O       2.10715      7.73345      6.37405         0.092242      0.514146      0.335389
O      13.74187      7.67572      6.81730        -0.052407      0.931155     -0.700451
O       2.15292      7.71950     10.90457        -0.979598      0.004783     -0.262493
O      13.78235      7.70999     10.66162         0.169603      0.281497      0.517113
O       2.04564     11.65861      2.36218        -0.112276      0.274746     -0.006635
O       1.93005     11.62014     15.06182        -0.267462      0.011382      0.062889
O      13.62817     11.60456      2.49190        -0.198053      0.133660     -0.444020
O      13.57210     11.66303     14.82491        -0.024381      0.373598      0.432239
O       1.90673     11.69843      6.68851        -0.256091     -0.118178      0.166250
O      13.74633     11.68279      6.68140         0.027042     -0.524868      0.263139
O       1.96795     11.64228     10.84094         0.017060     -0.002667     -0.548301
O      13.83289     11.63922     10.72091         0.083158     -0.084555      0.063740
O       5.75339      3.76681      2.48826         0.063155      0.647774      0.027126
O       5.75559      3.90870     14.95652         0.441805      0.030688     -0.116089
O       5.87253     15.56061      2.49632        -0.190370      0.157359     -0.081654
O       5.87061     15.53427     14.91012         0.239535     -0.218563     -0.140390
O       5.92683      3.85594      6.71403        -0.018642     -0.006488     -0.197684
O       5.87357     15.59873      6.58815        -0.511241      0.307825      0.427818
O       6.00491      3.86611     10.71544        -0.078271      0.062707      0.209801
O       5.81498      0.02000     10.72830         0.683716     -1.365132      0.348651
O       5.96341      7.73828      2.52845        -0.187205      0.065213     -0.262795
O       6.01058      7.78443     14.81669        -0.443141      0.457440      0.320549
O       5.75196      7.70529      6.62651         0.189151      0.525000     -0.328036
O       5.83237      7.76935     10.62275         0.244382      0.464335      0.511975
O       5.61352     11.66561      2.37615         0.094479      0.605645     -0.453023
O       5.78952     11.68142     15.02028         0.006219      0.278542     -0.229712
O       5.92673     11.75226      6.55088         0.044536     -0.875522      0.288145
O       5.77860     11.67756     10.74772         0.755812      0.642417     -0.155241
O       9.68991      3.81603      2.59837         0.762638      0.119052     -0.146922
O       9.77606      3.90548     14.60441        -0.177887     -0.052162      0.601315
O       9.61712     15.48757      2.40405         0.265158     -0.675928     -0.093474
O       9.71270     15.58783     14.96436        -0.390352     -0.001351      0.241033
O       9.76739      3.81626      6.51731         0.289291     -0.102995     -0.234091
O       9.80156     15.52994      6.74430         0.254248      0.354673      0.052047
O       9.91078      3.87048     10.83557        -0.531147      0.088139     -0.133565
O       9.90542     15.52700     10.67787         0.040724     -0.184796     -0.419269
O       9.69996      7.76748      2.53084        -0.180645     -0.176666     -0.166458
O       9.77805      7.80334     15.04495        -0.267375     -0.068282     -0.223248
O       9.79406      7.79316      6.77918         0.053045     -0.974815     -0.246161
O       9.85267      7.81323     10.63864        -0.098557     -0.010790      0.135441
O       9.86301     11.62962      2.68710        -0.379721      0.052360     -0.647733
O       9.91424     11.66470     14.75876        -0.311895     -0.600698      0.208257
O       9.57224     11.65110      6.45202         0.083585      0.062065      0.032859
O       9.71755     11.63297     10.97783        -0.164345      0.785761     -0.240241
