  # total energy = -7882.19271148 
CRSYTAL
PRIMVEC
    15.6080000000000005    0.0000000000000000    0.0000000000000000
     0.0000000000000000   15.6080000000000005    0.0000000000000000
     0.0000000000000000    0.0000000000000000   16.6239999999999988
PRESSURE
-0.681379 -0.50065 -0.66173 -0.235846 0.238801 -0.089915
PRIMCOORD
320 1
Pb       3.94930      3.80944      4.10518        -0.279373      0.661815      0.124942
Pb       4.02951      3.97506      0.06569        -0.348195     -0.054187     -0.345038
Pb       3.91201     15.58889      3.99319        -0.245579     -0.067449      0.070409
Pb       3.85856     15.57088     16.55984         0.074253     -0.111514     -0.189557
Pb       0.03899      3.86667      4.09843         0.081649      0.414219      0.619069
Pb      15.58801      3.78924     16.60692        -0.378799      0.485262     -0.341203
Pb      15.57288     15.48903      4.01006         0.108162     -0.085456      0.575475
Pb      15.57987     15.58750     16.56814        -0.136590     -0.062484     -0.103817
Pb       3.77108      3.77288      8.24919         0.721900      0.117161      0.248086
Pb       3.84088     15.58464      8.15173         0.637854     -0.379149      0.115127
Pb      15.47384      3.82864      8.27216         0.280989      0.540661     -0.108896
Pb      15.55285     15.55403      8.21068        -0.312325     -0.253343      0.478007
Pb       3.76627      3.86048     12.48180         0.720361     -0.105949     -0.299131
Pb       3.86215     15.54398     12.52708         0.372897      0.154785     -0.153774
Pb       0.07317      4.02199     12.54115        -0.223910     -0.501797      0.220579
Pb       0.06767      0.14612     12.65422        -0.119962     -0.241853     -0.494096
Pb       3.84704      7.87551      4.04983         0.171916     -0.607108      0.341068
Pb       3.89158      7.76591     16.52092        -0.139079      0.260352      0.551667
Pb      15.56341      7.85402      4.15579         0.223429     -0.382733     -0.302213
Pb      15.57312      7.75496     16.51654         0.794727     -0.547196      0.895066
Pb       3.80922      7.72481      8.30469         0.401059      0.039936     -0.423920
Pb      15.32641      7.70855      8.55754         0.720784     -0.191787     -0.512784
Pb       3.94219      7.76897     12.37419        -0.381456      0.370728     -0.002996
Pb      15.50932      7.83941     12.50887         0.303795      0.014904      0.126447
Pb       3.83342     11.72218      4.01291         0.116831     -0.283505      0.361919
Pb       3.81988     11.73805     16.59631         0.432970     -0.230727     -0.373565
Pb      15.52062     11.63802      4.01683         0.444112      0.311016      0.135777
Pb      15.55152     11.72854     16.54811         0.229439     -0.059409      0.101649
Pb       3.84348     11.78242      8.27269         0.221206     -0.493864     -0.406021
Pb       0.01868     11.67411      8.23811         0.114217     -0.294839      0.301874
Pb       3.89719     11.63241     12.35084        -0.031496     -0.152253      0.326504
Pb       0.10532     11.70560     12.45335        -0.307072      0.073082      0.194178
Pb       7.77180      3.71685      4.15690         0.520826      0.573320     -0.438386
Pb       7.79396      3.99572     16.55644         0.537848     -0.718437      0.611773
Pb       7.72354     15.54021      4.13064         0.546907     -0.145508     -0.459798
Pb       7.80170      0.13950     16.62102         0.339952     -0.476752     -0.162552
Pb       7.73230      3.83658      8.37710        -0.364493     -0.013847     -0.016345
Pb       7.85105      0.02667      8.20564        -0.355873     -0.220710      0.095735
Pb       7.81732      3.71987     12.40185        -0.475639      0.447263      0.373481
Pb       7.69591     15.54946     12.41660         0.224606      0.347173      0.473511
Pb       7.82987      7.83754      4.17949         0.067089     -0.663071      0.004146
Pb       7.62311      7.75517     16.58901         0.000254      0.232080      0.149444
Pb       7.81446      7.71664      8.19431        -0.081946      0.134772      0.029415
Pb       7.71330      7.74964     12.42004         0.062885     -0.103670      0.187487
Pb       7.85270     11.73091      4.17778         0.256043     -0.016446      0.470740
Pb       7.68551     11.80767     16.55154        -0.705403     -0.324094      0.059130
Pb       7.82189     11.75102      8.28089         0.270921     -0.433137     -0.532849
Pb       7.76340     11.66063     12.38950         0.316052     -0.066709      0.247880
Pb      11.85157      3.78215      4.26015        -0.515347      0.387917      0.235513
Pb      11.71466      4.02627      0.17955         0.217797     -0.638128     -0.664616
Pb      11.60767     15.44907      4.10183         0.296684     -0.213839      0.293844
Pb      11.60963     15.54963     16.55576         0.209658      0.275337     -0.200132
Pb      11.73285      4.06352      8.44668        -0.349526     -0.032071     -0.562155
Pb      11.71756      0.15655      8.34292         0.197052     -0.557345     -0.020465
Pb      11.76764      3.84290     12.47579        -0.550336      0.486882      0.493648
Pb      11.54575      0.07134     12.40393         0.454221     -0.839300      0.596512
Pb      11.77406      7.84484      4.22954        -0.244491     -0.134697     -0.353982
Pb      11.62053      7.81183     16.61166         0.224698      0.007635     -0.067560
Pb      11.68674      7.77448      8.36234        -0.795649      0.208087     -0.070658
Pb      11.51835      8.00465     12.56116         0.449518     -0.479367     -0.044769
Pb      11.87903     11.43873      4.17509        -0.795881      0.601432      0.202185
Pb      11.59029     11.66881     16.52474         0.856593     -0.185538      0.077229
Pb      11.81516     11.89482      8.52386        -0.482920     -0.315378     -0.318913
Pb      11.58655     11.77678     12.42799         0.215352      0.169255     -0.164667
Ti       1.96789      2.03892      2.18674        -0.186478     -0.701477     -0.115600
Ti       1.98541      2.05460     14.65090         0.334670     -1.065728     -0.047741
Ti       1.95408     13.67001      2.13789        -0.699615     -0.182524      0.632817
Ti       1.90725     13.67573     14.58601         0.247494     -0.416134     -0.109172
Ti      13.66475      1.90860      2.33141         0.838611     -0.620047     -1.526713
Ti      13.72048      1.90957     14.60419        -1.125700      0.454796      1.007871
Ti      13.61405     13.56375      2.15741         0.632196      1.159162     -0.545622
Ti      13.60435     13.60013     14.65625        -0.006515     -0.087343     -0.456940
Ti       1.90136      1.75312      6.34121         0.541505      0.785308     -0.323602
Ti       1.85720     13.53195      6.28052         0.746266      0.586116     -1.113096
Ti      13.64878      1.88720      6.41409        -0.211152      0.010347     -0.176711
Ti      13.65237     13.55467      6.41499        -0.528818      0.779843     -0.928428
Ti       2.02990      1.83883     10.56533        -0.594582      0.867048      0.948112
Ti       1.93343     13.66003     10.52318         0.021357      0.059273      0.905168
Ti      13.74331      2.01588     10.60290        -0.077524     -1.307427     -0.159445
Ti      13.70295     13.76398     10.60880        -0.581870     -0.060713      0.139429
Ti       1.88163      5.90586      2.23081         0.262340     -0.217406      0.817409
Ti       2.04936      5.86585     14.51469        -1.039192     -0.164558      0.638742
Ti      13.56711      5.81245      2.29458         0.868890      0.340329     -0.199798
Ti      13.69780      5.78533     14.69686        -0.187437     -0.449988      0.572374
Ti       1.98195      5.68168      6.35498        -0.571979      1.100534     -0.714223
Ti      13.68191      5.89558      6.36214         0.147802     -0.797481     -0.311738
Ti       1.82925      5.83825     10.59079         0.582246     -0.269580     -0.313102
Ti      13.57228      5.85829     10.65931        -0.101417      0.901083     -0.165815
Ti       1.99069      9.77341      2.22435        -0.538624     -0.665880     -1.280457
Ti       1.95173      9.75279     14.72518        -0.070317      0.080642      0.109048
Ti      13.64058      9.70067      2.15790         0.220518     -0.761144      0.332514
Ti      13.70491      9.61290     14.77652        -0.838458      1.206250     -0.832503
Ti       1.98830      9.60580      6.35626         0.219615     -0.150682      0.066602
Ti      13.71765      9.72731      6.50122        -0.606895     -0.088803     -0.537056
Ti       1.90427      9.73707     10.45441         0.964417     -0.357722      0.295959
Ti      13.73952      9.84816     10.57965        -1.264578     -0.430357     -0.211466
Ti       5.89808      1.97113      2.14628         0.285081     -0.521583      0.155811
Ti       5.85924      1.82805     14.68679         0.629064      0.321234     -0.892470
Ti       5.91782     13.53603      2.28970        -0.881513      0.487170     -1.865233
Ti       5.82438     13.59949     14.59535        -0.060254     -0.289394      0.516293
Ti       5.87691      1.81050      6.23084        -0.620996      0.286283      2.259852
Ti       5.89392     13.50786      6.30235        -0.394623      0.506499      0.288265
Ti       5.78418      1.97010     10.51432         0.667452      0.035114     -0.353576
Ti       5.83866     13.59063     10.50128         0.121054      0.898496      0.864818
Ti       5.79983      5.87562      2.16672         0.149720      0.312998     -0.055628
Ti       5.87035      5.72327     14.70600         0.021230      1.119085      0.043964
Ti       5.80105      5.73536      6.29185         0.163951      0.783235      0.208737
Ti       5.71131      5.83519     10.55144         0.688020     -1.681031     -1.148509
Ti       6.02641      9.71200      2.28765        -1.504883      0.297446     -1.905870
Ti       5.88102      9.70161     14.59461        -1.118223      0.602046      0.552885
Ti       5.87726      9.62698      6.29177        -0.011485     -0.071516      1.125930
Ti       5.86327      9.73754     10.40178        -0.410783     -0.620314     -0.178119
Ti       9.90710      1.91923      2.24791        -1.361559     -0.057784     -0.537851
Ti       9.84565      1.90174     14.72414        -0.204392     -0.278330      0.716840
Ti       9.81049     13.52321      2.13208        -0.224221      0.839957      0.683242
Ti       9.71102     13.54794     14.68782         0.087185      1.393228     -1.274488
Ti       9.78000      1.96041      6.44455         0.167117     -0.108681     -0.461050
Ti       9.82298     13.61914      6.36285        -0.344044     -0.276614     -0.650100
Ti       9.78408      1.93876     10.54554        -0.881407      0.446672     -1.388866
Ti       9.64071     13.70795     10.49013         1.676490     -1.114325     -0.382722
Ti       9.75379      5.78549      2.27657        -0.507204      0.210382      0.425873
Ti       9.77499      5.80690     14.81077         0.264904     -0.050276     -1.557581
Ti       9.74056      5.77523      6.32847        -0.457600      0.749241      0.710162
Ti       9.66093      5.81608     10.71241         0.745031      0.487748     -0.712044
Ti       9.77467      9.69483      2.07887         1.010974     -0.493238      0.349815
Ti       9.67963      9.70424     14.71098         0.216064     -0.377956     -0.017870
Ti       9.85762      9.76482      6.41530        -0.085795     -0.258417      0.146160
Ti       9.69665      9.72027     10.52170         0.704852      0.498100     -0.762276
O       1.92816      1.96711      0.38040        -0.020523      0.363471      0.448024
O       2.04556      1.90578     12.85462        -0.167058     -0.166877      0.816374
O       1.89829     13.67960      0.37065         0.304094     -0.111013     -0.290345
O       1.96149     13.56545     12.75671         0.053351      0.160456      1.070173
O      13.75625      1.87566      0.50167         0.288627      0.276899      0.851802
O      13.68908      2.10349     12.85161        -0.082042     -0.521191     -0.711837
O      13.69633     13.67807      0.34542        -0.216285      0.025201      0.828385
O      13.59182     13.57003     12.86905         0.238795      0.109555      0.163162
O       1.95435      1.85194      4.61153         0.199215      0.183567     -0.728295
O       1.75490     13.57645      4.47773         0.677894     -0.388140      0.809118
O      13.59361      1.93146      4.65297         0.158807     -0.133815     -0.600419
O      13.71751     13.55558      4.61984        -0.258492     -0.117166      0.324091
O       2.11653      1.88307      8.78930        -0.539142     -0.269903     -0.406074
O       2.06543     13.88743      8.79386        -0.346635     -0.612119     -0.878555
O      13.70150      1.82110      8.78926        -0.060595      0.581173      0.339995
O      13.66789     13.68857      8.77658        -0.050920     -0.349898      0.434630
O       1.94948      5.97252      0.49129        -0.042227     -0.760469     -0.738492
O       2.12044      5.83113     12.70947        -0.420355      0.060259      1.160182
O      13.65002      5.63739      0.51934        -0.054059      0.157339     -0.632848
O      13.67113      5.84170     12.95871        -0.252372     -0.245084     -0.899531
O       1.92071      5.75811      4.56733         0.224309      0.050684      0.938711
O      13.57798      5.92438      4.56866         0.144192     -0.173659      0.540572
O       1.85085      5.63831      8.82892        -0.124825      0.134961     -0.639351
O      13.77889      5.74815      8.79724        -0.628111      0.373635      0.485514
O       1.87531      9.73209      0.40933         0.457252     -0.047631      0.794351
O       1.77911      9.71504     12.96346         0.362810      0.138625     -0.385358
O      13.55665      9.68914      0.43150         0.150866     -0.025932     -1.124317
O      13.73534      9.65856     12.99168         0.264706      0.036511     -0.467039
O       1.96668      9.75004      4.52428        -0.108073     -0.155578      0.843503
O      13.57334      9.70004      4.63048         0.188352     -0.016745      0.323159
O       2.02048      9.83027      8.69439        -0.286751     -0.472201     -0.076591
O      13.85508      9.82921      8.72462        -0.340218     -0.288950      1.234599
O       5.86761      1.85418      0.37834        -0.085647      0.285535     -0.008385
O       5.85208      1.93289     12.88544         0.070756     -0.150678      0.776656
O       5.85370     13.50930      0.44231         0.160673     -0.070457      0.349838
O       5.79807     13.62241     12.83294         0.116056      0.053563     -0.558836
O       5.83636      1.91500      4.48470         0.319369     -0.059234     -1.211121
O       5.87197     13.50823      4.52553        -0.060013      0.388488     -1.128778
O       5.85851      1.93588      8.71582        -0.177752      0.123829      0.241261
O       5.96387     13.61949      8.76838         0.034204     -0.191030     -1.053280
O       5.76079      6.04452      0.28561         0.110261     -1.098329      1.055799
O       5.93060      5.77666     12.95140        -0.440108      0.393464     -0.314829
O       5.76145      5.85874      4.51425         0.241718     -0.131441     -0.089710
O       5.92220      5.64268      8.77100        -0.188201      0.498478      0.146234
O       5.98546      9.85899      0.43812         0.036513     -0.288857      0.908757
O       5.77924      9.65254     12.82393         0.124933      0.071368     -0.192369
O       5.85660      9.59649      4.50572         0.149863      0.086231     -0.938634
O       5.81818      9.80547      8.62063         0.180311     -0.136184      1.023791
O       9.85149      1.79659      0.43264        -0.037774      0.026127      1.133088
O       9.81641      1.87555     12.96004        -0.253530      0.342030     -1.122267
O       9.75736     13.75553      0.34331         0.011505     -0.782173      0.651179
O       9.82364     13.61449     12.87359        -0.233176     -0.268162      0.291580
O       9.73700      2.02916      4.62714        -0.003265     -0.429141      0.313705
O       9.72644     13.56633      4.52510         0.244017      0.167594      0.846434
O       9.72863      2.03430      8.69754         0.416537     -0.503887      1.038758
O       9.61519     13.64111      8.66358         0.147679     -0.069336      0.517063
O       9.85296      5.54560      0.51773        -0.290354      0.937997     -0.956372
O       9.78623      5.74741     13.01004        -0.446251     -0.042865      0.475425
O       9.68246      5.85714      4.57679         0.175022     -0.117773     -0.109917
O       9.89450      5.90395      8.91050        -0.405913     -0.284619      0.154887
O       9.94658      9.67479      0.27571        -0.804291      0.172677      1.091171
O       9.67069      9.83794     12.93517         0.134038     -0.227520     -0.344515
O      10.02161      9.68204      4.58889        -0.587577      0.127009      0.598782
O       9.78948      9.70489      8.74689        -0.232153      0.051821      0.026816
O       3.87972      1.98037      2.51710         0.441984     -0.558694     -0.130684
O       3.97343      1.95757     15.02796        -0.532323      0.062587      0.023551
O       3.88305     13.57475      2.48007        -0.383674      0.138716      0.187622
O       3.85574     13.71833     14.96127        -0.041559     -0.383622      0.016020
O       0.07571      2.00408      2.67303        -0.569121     -0.246503     -0.771805
O       0.04067      2.02896     14.89237         0.182370     -0.390103      0.216405
O      15.56902     13.61006      2.49145        -0.248423     -0.213197     -0.256402
O       0.03490     13.55144     14.96477        -0.196251      0.604906     -0.287372
O       3.92718      1.76560      6.64067        -0.274975      0.313814     -0.320694
O       3.95050     13.63236      6.62709        -0.596675     -0.227100      0.012013
O      15.59205      1.82007      6.75483         0.464041      0.545960     -0.225572
O      15.56383     13.59268      6.68895         0.831078     -0.211258      0.299015
O       3.89919      1.91375     10.89169        -0.218718     -0.141248     -0.170985
O       4.00020     13.55357     10.79381        -0.826681      0.370179     -0.030899
O      15.59593      1.88833     10.96077        -0.154701      0.012018     -0.558828
O       0.02643     13.67158     10.80178        -0.369484      0.016198     -0.003454
O       3.87632      5.93803      2.46216         0.321021     -0.342869      0.066338
O       3.89713      5.78672     14.99451         0.228195     -0.185083     -0.172339
O      15.57240      5.70551      2.57118        -0.191205      0.181614      0.016694
O       0.02816      5.83919     14.85190         0.114787     -0.545599      0.353253
O       3.88978      5.97562      6.68979        -0.095758     -1.085547      0.121551
O      15.60668      5.81447      6.68018        -0.117136     -0.095141     -0.004214
O       3.83301      5.77223     10.69624        -0.024927      0.239749      0.492796
O      15.53791      5.86356     11.00901         0.171717     -0.771789     -0.276241
O       3.87796      9.63883      2.44970         0.037604      0.474090      0.113819
O       3.81277      9.78154     14.98705         0.736873     -0.151450      0.008649
O      15.54810      9.69136      2.54327        -0.161771      0.141986     -0.011957
O       0.00844      9.68653     15.20245        -0.328022      0.164202     -0.697258
O       3.99437      9.71214      6.64493        -1.227790      0.149133     -0.029302
O       0.05064      9.66633      6.71114        -0.049154      0.389789     -0.294174
O       3.82583      9.72065     10.86171         0.362029     -0.246064     -0.158209
O       0.03065      9.76122     10.90828        -0.543285      0.173942     -0.326664
O       7.80640      1.99609      2.46953        -0.097619     -0.031791      0.251519
O       7.81200      1.81475     14.93113        -0.259237      0.347574      0.449463
O       7.74711     13.41039      2.49683         1.441305      0.489863      0.040108
O       7.82503     13.58806     14.76604        -0.607503     -0.340797      0.700527
O       7.80913      1.92893      6.73772        -0.334313     -0.131377     -0.679419
O       7.84097     13.62791      6.49012         0.278757      0.080875      0.699110
O       7.82042      2.02742     10.74328         0.118292     -0.106586      0.416733
O       7.82448     13.65576     10.92012        -1.039902     -0.286506     -0.091539
O       7.72979      5.83107      2.44318         0.722161     -0.388903      0.206247
O       7.82272      5.86726     15.11724        -0.342522     -0.316530     -0.045980
O       7.75873      5.97954      6.60788         0.942645     -1.066266      0.002934
O       7.79314      5.76745     10.94045        -0.026345      0.237189     -0.127593
O       7.90912      9.82037      2.58528         0.134816     -0.393432     -0.229119
O       7.72197      9.75668     14.89016         0.804851      0.146946      0.302814
O       7.80199      9.68747      6.55642         0.919616      0.150249      0.190607
O       7.75481      9.62401     10.76464        -0.629169      0.420436      0.076353
O      11.77835      1.78839      2.53903        -1.011021      0.205774      0.221552
O      11.76852      1.84544     14.93989        -0.056692     -0.288071      0.098011
O      11.73046     13.59337      2.57756        -0.753392      0.581134     -0.576109
O      11.66978     13.61193     14.97660         0.737222      0.058521      0.130858
O      11.75473      1.87836      6.70986        -0.794624      0.541093      0.172197
O      11.76233     13.61724      6.70769        -0.672862     -0.059176      0.113656
O      11.64040      1.89642     10.90342         0.675306      0.528279     -0.377717
O      11.63053     13.58493     10.83565         0.368190     -0.021099     -0.424940
O      11.66012      5.83222      2.56055         0.321744     -0.194785      0.143839
O      11.70021      5.86985     15.00141         0.044467     -0.261239      0.581744
O      11.68064      5.86341      6.74039        -0.062259     -0.339553     -0.076713
O      11.66725      6.01257     11.08713         0.938640     -0.730299     -0.801278
O      11.73072      9.61724      2.49906        -0.559862      0.340354      0.078833
O      11.72063      9.54769     14.91028        -0.192366      0.366917      0.296927
O      11.79653      9.66739      6.83666        -0.499930      0.287696     -0.261588
O      11.70306      9.67731     10.86133         0.540003      0.276417     -0.109474
O       2.02656      3.90718      2.65221        -0.202881     -0.580342     -0.822889
O       1.92341      3.89721     14.81173         0.379085      0.635242      0.452275
O       1.90543     15.55386      2.43744         0.358401      0.523949      0.189029
O       1.97151      0.05086     14.88393        -0.333934     -0.761168      0.094274
O      13.57182      3.83809      2.69788         0.094293     -0.278386     -0.347634
O      13.61282      3.79643     14.99928         0.309031      1.155691      0.298270
O      13.66358     15.55657      2.57509         0.091748      0.000413      0.015021
O      13.86104     15.58759     14.82987        -0.335671     -0.268415      0.294012
O       2.03446      3.79725      6.66595        -0.352328     -0.051089     -0.153102
O       1.90485     15.45926      6.45157         0.135473      0.565865      1.016029
O      13.60915      3.89991      6.66860         0.219634     -0.126742      0.313373
O      13.64141     15.54888      6.69687         0.197332     -0.005998      0.157895
O       1.86710      3.77580     11.08962         0.290068      0.321327     -1.280358
O       1.96176     15.58096     11.04979         0.143964     -0.160526     -0.691231
O      13.55632      3.92023     10.78481         0.011179     -0.356939      0.120193
O      13.50068      0.01553     10.90618         0.742575     -0.209044     -0.044141
O       1.85742      7.75269      2.63730        -0.169393      0.846829     -0.104908
O       1.94743      7.65807     14.95589         0.083047      1.250203     -0.150592
O      13.61070      7.71418      2.45397         0.347275      0.636431      0.350359
O      13.75330      7.72860     15.02067        -0.375862     -0.186274      0.232657
O       2.03782      7.75249      6.71857        -0.419300      0.470237     -0.283970
O      13.61643      7.78423      6.74700         0.468321     -0.414657      0.242828
O       1.83721      7.73308     10.79568         0.316365      0.824864     -0.273417
O      13.82565      7.77050     10.81705        -0.468955      0.638806     -0.346654
O       1.84467     11.67523      2.47486         0.542034     -0.137939     -0.022649
O       1.90182     11.70794     14.92168         0.168870      0.051188      0.221831
O      13.53259     11.68770      2.45534         0.639441     -0.787052      0.023568
O      13.66429     11.68965     15.04392        -0.124895     -0.468461     -0.092721
O       2.00982     11.69665      6.72956        -0.309791     -0.236394     -0.165753
O      13.61383     11.61107      6.75268         0.441520      0.860372     -0.011214
O       1.94413     11.67439     10.69951        -0.032879      0.522555      0.342758
O      13.63581     11.69998     10.93918         0.245000     -0.344904     -0.593693
O       5.79219      3.93993      2.36173        -0.207439     -0.868852      0.136075
O       5.95645      3.90200     15.02297        -0.506419     -0.778528      0.190488
O       5.89984     15.56159      2.41374        -0.147145      0.098796      0.686650
O       5.87179     15.48677     14.97630        -0.184423      1.021056      0.079284
O       5.74275      3.82433      6.50048         0.410211      0.017548      0.194640
O       5.89071     15.52660      6.54840         0.330621      0.474115      0.069903
O       5.72692      3.89207     10.89678         0.542836     -0.627783      0.107951
O       5.94193      0.07928     10.92303        -0.588639     -1.291108     -0.571245
O       5.91295      7.77467      2.38280         0.219323      0.826059      0.570940
O       5.78378      7.85660     15.02224         0.223508     -0.523534     -0.442069
O       5.91105      7.71780      6.70127        -0.480454      0.588485     -0.064501
O       5.73791      7.69184     10.82045         0.391356      1.360555     -0.081566
O       5.80776     11.61158      2.47819        -0.142583      0.060214      0.797837
O       5.80276     11.70975     14.85308        -0.002017     -0.345711      0.432915
O       5.96679     11.66230      6.50885        -0.259256     -0.235076      0.561393
O       5.86091     11.58957     10.83518         0.185814      0.861679     -0.247889
O       9.89634      3.83849      2.59714        -0.358551     -0.733739     -0.008028
O       9.74101      3.76001     15.21660         0.078109      0.933780     -0.857251
O       9.59803     15.51147      2.58938         0.678714      0.348849     -0.099510
O       9.75192     15.53469     15.02257         0.123790      0.091243     -0.003276
O       9.64313      3.86589      6.78899         0.647012      1.029603     -0.518390
O       9.85187     15.60015      6.76643        -0.449713     -0.035044     -0.521299
O       9.78141      3.88882     10.87916         0.303312     -0.177778      0.084129
O       9.74804     15.57886     10.77880        -0.265030      0.701817      0.054306
O       9.73482      7.73029      2.34367        -0.156027      0.892678      0.337368
O       9.60837      7.75804     14.96365         0.539516     -0.101523      0.347060
O       9.78897      7.85378      6.78126         0.077015     -1.055360     -0.336318
O       9.67139      7.87202     11.00771         0.052381     -1.091109      0.027104
O       9.85821     11.66694      2.35345        -0.113232     -0.554929     -0.049414
O       9.79798     11.61452     15.02018        -0.188596      0.547514     -0.028127
O       9.83026     11.68947      6.67683        -0.211877      0.005512      0.155107
O       9.68564     11.69054     10.72125        -0.221810     -0.171544      0.474224
