  # total energy = -7881.83021200 
CRSYTAL
PRIMVEC
    15.6080000000000005    0.0000000000000000    0.0000000000000000
     0.0000000000000000   15.6080000000000005    0.0000000000000000
     0.0000000000000000    0.0000000000000000   16.6239999999999988
PRESSURE
-0.809004 -0.535466 -0.696764 -0.265391 0.228165 -0.09869
PRIMCOORD
320 1
Pb       3.95497      3.81258      4.10635        -0.398117      0.562938      0.065295
Pb       4.03573      3.97939      0.07221        -0.441848      0.013378     -0.291895
Pb       3.91247     15.59244      3.99082        -0.251719     -0.036587      0.141553
Pb       3.85248     15.57073     16.56227         0.157660     -0.109445     -0.118114
Pb       0.04075      3.86320      4.10350         0.116204      0.475601      0.367863
Pb      15.58533      3.78702     16.60712        -0.388878      0.566238     -0.351622
Pb      15.57013     15.48901      4.00700         0.239837     -0.040341      0.578334
Pb      15.57876     15.58623     16.57000        -0.119061      0.058726     -0.129725
Pb       3.76211      3.76920      8.25347         0.641356      0.091894      0.154272
Pb       3.83990     15.59096      8.15413         0.800348     -0.413029      0.006704
Pb      15.47188      3.82579      8.27404         0.404538      0.560218     -0.241462
Pb      15.55920     15.55517      8.21022        -0.277601     -0.137870      0.426500
Pb       3.76568      3.86421     12.48438         0.844148     -0.170925     -0.420280
Pb       3.85891     15.53600     12.52312         0.424550      0.191146     -0.217986
Pb       0.07503      4.01700     12.53892        -0.388850     -0.432939      0.295552
Pb       0.06589      0.15565     12.66061        -0.110601     -0.393390     -0.637676
Pb       3.84192      7.87868      4.05840         0.176484     -0.577001      0.264280
Pb       3.88812      7.76424     16.52220        -0.078104      0.281148      0.534792
Pb      15.57456      7.85667      4.16284         0.146558     -0.235394     -0.387449
Pb      15.57419      7.75634     16.51902         0.760531     -0.585147      0.837377
Pb       3.81529      7.72167      8.30455         0.402381     -0.036326     -0.598667
Pb      15.32099      7.70919      8.56391         0.807560     -0.301745     -0.489979
Pb       3.94235      7.77387     12.37659        -0.249648      0.384945      0.118268
Pb      15.50983      7.84695     12.51653         0.217634     -0.094630      0.092392
Pb       3.83136     11.72170      4.01273         0.143283     -0.315775      0.280139
Pb       3.82110     11.73663     16.59203         0.482501     -0.320955     -0.374331
Pb      15.52136     11.64045      4.01740         0.465144      0.227351      0.046778
Pb      15.55068     11.73455     16.54991         0.223952     -0.133226      0.133733
Pb       3.84099     11.78015      8.26391         0.246110     -0.431207     -0.455365
Pb       0.01557     11.67065      8.23878         0.208046     -0.223187      0.300493
Pb       3.90265     11.63193     12.34791        -0.005788     -0.103350      0.345447
Pb       0.11188     11.69927     12.44979        -0.250408      0.191803      0.270525
Pb       7.77164      3.71157      4.15999         0.555755      0.427473     -0.460740
Pb       7.79225      4.00020     16.56039         0.670165     -0.858940      0.518191
Pb       7.72001     15.53498      4.12721         0.655921     -0.080938     -0.432356
Pb       7.80475      0.14264      0.00345         0.302400     -0.397013     -0.181086
Pb       7.72334      3.84121      8.37954        -0.137586     -0.058087      0.056416
Pb       7.85554      0.02543      8.21120        -0.500604     -0.320006      0.128927
Pb       7.81197      3.71725     12.40306        -0.356227      0.435910      0.306722
Pb       7.69327     15.54793     12.42419         0.146968      0.410382      0.484994
Pb       7.82539      7.83858      4.18051        -0.039388     -0.567848     -0.028472
Pb       7.62650      7.76488     16.58855        -0.170285      0.201806      0.220846
Pb       7.81692      7.71626      8.19530        -0.100493      0.232123      0.002546
Pb       7.71665      7.74149     12.42297         0.005759     -0.018795      0.088896
Pb       7.85792     11.73292      4.18432         0.316617     -0.045234      0.394860
Pb       7.68081     11.80551     16.55364        -0.617026     -0.322581      0.096274
Pb       7.81392     11.75165      8.27503         0.209593     -0.354452     -0.481508
Pb       7.76166     11.65148     12.38967         0.304829     -0.060193      0.151782
Pb      11.85606      3.78377      4.26979        -0.612871      0.254365      0.143134
Pb      11.71994      4.03175      0.18309         0.250013     -0.647024     -0.658322
Pb      11.60556     15.44760      4.10634         0.172504     -0.130822      0.198919
Pb      11.60650     15.54557     16.56138         0.164914      0.332156     -0.162502
Pb      11.73439      4.06994      8.45218        -0.378051     -0.036801     -0.622668
Pb      11.71249      0.15933      8.34270         0.393139     -0.562417     -0.002796
Pb      11.77160      3.84060     12.48654        -0.621760      0.368484      0.405517
Pb      11.55347      0.06804     12.40666         0.419876     -0.790453      0.459506
Pb      11.77490      7.83351      4.22708        -0.197140     -0.076965     -0.308067
Pb      11.61270      7.81290     16.61483         0.220694      0.044213     -0.179928
Pb      11.68273      7.78195      8.36102        -0.873583      0.094690     -0.124424
Pb      11.51069      8.00628     12.57039         0.493714     -0.434804     -0.170087
Pb      11.87568     11.42699      4.18056        -0.838482      0.626685      0.066915
Pb      11.59757     11.67365     16.52383         0.725612     -0.284671      0.089472
Pb      11.82638     11.90079      8.52587        -0.601156     -0.327925     -0.179816
Pb      11.58397     11.78488     12.42553         0.117273      0.134329     -0.197531
Ti       1.96265      2.03324      2.17599        -0.057735     -0.490182      0.020786
Ti       1.98487      2.05432     14.64494         0.141997     -0.919959      0.239343
Ti       1.95722     13.66742      2.12548        -0.650208     -0.042866      1.068272
Ti       1.90833     13.68158     14.58889         0.362055     -0.631545     -0.328130
Ti      13.66925      1.90035      2.32524         0.581531     -0.383390     -1.511908
Ti      13.69934      1.89729     14.59989        -0.934826      1.021092      1.405208
Ti      13.61412     13.57800      2.16260         0.450696      0.776313     -0.514231
Ti      13.60307     13.60473     14.65064        -0.026617     -0.386596     -0.668610
Ti       1.90482      1.74831      6.32654         0.699878      1.025537      0.154187
Ti       1.85380     13.53409      6.29003         1.096345      0.777703     -0.920365
Ti      13.64922      1.88970      6.41147        -0.104058     -0.011341     -0.409503
Ti      13.65348     13.55052      6.41147        -0.430348      0.961784     -0.996850
Ti       2.02733      1.84612     10.55047        -0.354053      0.709348      1.436621
Ti       1.94186     13.66427     10.52761        -0.091024      0.174728      0.616195
Ti      13.74383      2.01178     10.61205        -0.133601     -1.464427     -0.542827
Ti      13.71455     13.75049     10.60042        -0.621615      0.272275      0.246040
Ti       1.88201      5.91399      2.23510         0.166049     -0.643078      0.777947
Ti       2.05573      5.84722     14.51348        -0.973817      0.255934      1.103567
Ti      13.56371      5.80746      2.29163         0.938644      0.285788     -0.474292
Ti      13.70362      5.79891     14.69863        -0.264271     -0.684728      0.820078
Ti       1.99464      5.68718      6.34858        -0.650853      0.832033     -0.179459
Ti      13.70316      5.89175      6.36490         0.097856     -0.917205     -0.363746
Ti       1.82889      5.83865     10.59249         0.534579     -0.567744     -0.940905
Ti      13.56896      5.84561     10.64954        -0.040633      0.968343      0.094966
Ti       1.98861      9.78181      2.21702        -0.232922     -0.860801     -1.147594
Ti       1.94779      9.74434     14.72115         0.138131      0.067696      0.364455
Ti      13.63514      9.69933      2.14459         0.210908     -0.700305      0.396583
Ti      13.71420      9.61612     14.76271        -1.077559      1.292581     -0.351302
Ti       1.98520      9.60392      6.35060         0.289760     -0.013825     -0.205873
Ti      13.71423      9.73044      6.50858        -0.591534     -0.331299     -0.887461
Ti       1.91117      9.73204     10.45098         0.944636     -0.277857      0.442327
Ti      13.73861      9.84434     10.57304        -1.241356     -0.407284     -0.109015
Ti       5.89516      1.97367      2.14599         0.257607     -0.703079      0.454970
Ti       5.84107      1.83368     14.69442         0.984828      0.387487     -0.844974
Ti       5.91235     13.53683      2.27395        -1.020392      0.405774     -1.614104
Ti       5.82119     13.60794     14.59030         0.055774     -0.292462      0.396522
Ti       5.88684      1.82278      6.23452        -1.033955     -0.041263      1.984837
Ti       5.88851     13.51409      6.28232        -0.398214      0.895752      0.967729
Ti       5.79173      1.96997     10.51069         0.626428      0.024194     -0.251478
Ti       5.83982     13.59384     10.50352         0.203933      0.813677      0.304597
Ti       5.80158      5.86788      2.16487         0.033908      0.686891     -0.239035
Ti       5.87709      5.71696     14.68689         0.070351      1.316852      0.422082
Ti       5.81007      5.72187      6.29793         0.011539      0.918225      0.184746
Ti       5.71223      5.84392     10.52712         0.739295     -1.887909     -0.401812
Ti       6.01938      9.71317      2.28739        -1.534174      0.413443     -1.901921
Ti       5.88555      9.71381     14.59283        -1.292964      0.228054      0.565680
Ti       5.87471      9.63655      6.29718        -0.007309     -0.255253      0.630549
Ti       5.85112      9.73088     10.38801        -0.121724     -0.334049      0.027451
Ti       9.90105      1.91496      2.24508        -1.172353      0.177897     -0.016967
Ti       9.84577      1.89180     14.71064        -0.633787     -0.040339      0.708980
Ti       9.80325     13.52313      2.12532        -0.134057      0.808920      0.582921
Ti       9.71527     13.55033     14.68921        -0.135735      1.268304     -1.128319
Ti       9.77154      1.95699      6.45331         0.251060      0.003465     -1.086293
Ti       9.83057     13.61438      6.36915        -0.637828     -0.342822     -1.224482
Ti       9.78877      1.93705     10.53673        -0.866614      0.567361     -1.006895
Ti       9.63994     13.71356     10.49357         1.562516     -1.191381     -0.341524
Ti       9.74234      5.78495      2.28093        -0.331934      0.110884      0.583583
Ti       9.77082      5.80471     14.79555         0.336403     -0.192472     -1.199340
Ti       9.74686      5.77638      6.32536        -0.344885      0.804858      0.823961
Ti       9.67149      5.82076     10.70076         0.706495      0.221020     -0.748036
Ti       9.76483      9.69851      2.08668         1.022469     -0.428443      0.116353
Ti       9.68148      9.70139     14.71267         0.301274     -0.211279      0.032281
Ti       9.85109      9.76391      6.41172        -0.241538     -0.365113      0.108297
Ti       9.69461      9.71846     10.52471         0.585091      0.770587     -1.087223
O       1.92881      1.97595      0.37513         0.009830      0.253440      0.264754
O       2.04790      1.90099     12.85786        -0.146475     -0.078909      0.803214
O       1.90113     13.65041      0.37534         0.279166      0.084791     -0.609751
O       1.97939     13.55150     12.74469        -0.019164      0.145361      1.299975
O      13.73454      1.86591      0.49800         0.342465      0.220671      0.667275
O      13.68463      2.11262     12.86432        -0.085242     -0.577945     -1.164752
O      13.69470     13.66897      0.34784        -0.200174      0.170626      0.771959
O      13.58118     13.56450     12.84419         0.207417      0.143690      0.801593
O       1.96366      1.87624      4.61959         0.107224      0.137145     -1.392726
O       1.77142     13.59164      4.49867         0.550843     -0.448122      0.496304
O      13.60547      1.93940      4.63712         0.175993     -0.171258     -0.231044
O      13.71876     13.54764      4.60659        -0.248284     -0.082033      0.522844
O       2.12930      1.86301      8.78473        -0.598245     -0.171075     -0.369266
O       2.04831     13.89762      8.78178        -0.402143     -0.701592     -0.416635
O      13.70933      1.81231      8.77974        -0.055232      0.615816      0.539818
O      13.68634     13.69079      8.75683        -0.066568     -0.390616      0.587478
O       1.96366      5.96993      0.50406        -0.068065     -0.684441     -1.168120
O       2.13421      5.80552     12.72526        -0.452907      0.149387      0.733744
O      13.66349      5.62811      0.49920        -0.232267      0.267668     -0.203305
O      13.69760      5.82670     12.96999        -0.387778     -0.163646     -1.464265
O       1.91215      5.76519      4.58239         0.197105      0.033331      0.442427
O      13.58339      5.91399      4.58003         0.171683     -0.146994      0.205650
O       1.85032      5.64983      8.79587        -0.040077      0.214657      0.078662
O      13.78835      5.74190      8.80365        -0.660288      0.325966      0.354067
O       1.87955      9.72123      0.41254         0.395308     -0.032779      0.566884
O       1.77028      9.70478     12.96228         0.409047      0.214200     -0.448757
O      13.53852      9.68481      0.40906         0.182277     -0.046866     -0.582098
O      13.71500      9.63516     12.99110         0.404019      0.160713     -1.020946
O       1.95317      9.76094      4.50616        -0.023207     -0.242412      1.006720
O      13.57331      9.68551      4.61144         0.214563      0.105661      0.813566
O       2.04505      9.80618      8.69845        -0.329959     -0.451473     -0.125820
O      13.87004      9.84519      8.72041        -0.420603     -0.414882      1.126072
O       5.86989      1.85175      0.39033        -0.137264      0.287068     -0.441096
O       5.86179      1.93700     12.89910         0.048162     -0.128542      0.732989
O       5.84390     13.51665      0.44305         0.199464      0.012512      0.058265
O       5.78719     13.63047     12.82008         0.130772      0.020109     -0.414451
O       5.83244      1.93035      4.47929         0.365413     -0.098655     -1.035566
O       5.85799     13.51292      4.53307        -0.066072      0.386889     -1.730185
O       5.84788      1.94206      8.71846        -0.109728      0.127146     -0.025419
O       5.96364     13.60596      8.75586         0.043986     -0.142374     -0.630976
O       5.76671      6.04282      0.27372         0.066523     -1.116187      1.505810
O       5.93838      5.78401     12.94482        -0.401278      0.416584     -0.793126
O       5.75934      5.85988      4.52501         0.303757     -0.156697     -0.207851
O       5.93203      5.65460      8.78024        -0.199580      0.419143     -0.444517
O       5.98559      9.84549      0.43630         0.107043     -0.212929      0.714577
O       5.78952      9.68018     12.81598         0.086590     -0.062042     -0.132311
O       5.85063      9.59098      4.48709         0.216028      0.220569     -0.321521
O       5.82529      9.81311      8.60403         0.074517     -0.161897      1.020571
O       9.83011      1.81959      0.45056         0.066056     -0.176575      0.646371
O       9.80090      1.87914     12.94262        -0.156099      0.253229     -1.172303
O       9.73344     13.72185      0.31237         0.083921     -0.632766      0.943799
O       9.83218     13.63133     12.87776        -0.170701     -0.253287      0.022655
O       9.71582      1.99971      4.58532        -0.023256     -0.402078      1.261427
O       9.73572     13.54982      4.49132         0.225301      0.227111      1.431759
O       9.72015      2.02833      8.70238         0.423682     -0.467378      0.542531
O       9.62769     13.61950      8.67338         0.120526     -0.025825      0.279691
O       9.89302      5.53268      0.53731        -0.518936      0.936820     -1.318495
O       9.78338      5.75901     13.01080        -0.462411      0.000219      0.123797
O       9.66881      5.83571      4.57624         0.141049     -0.040311     -0.116266
O       9.91787      5.88143      8.90137        -0.496334     -0.177620      0.027671
O       9.94310      9.69448      0.26566        -0.768927      0.066054      1.239458
O       9.67732      9.83823     12.93239         0.106086     -0.310428     -0.360535
O      10.01677      9.65888      4.58223        -0.579919      0.171503      0.639704
O       9.78458      9.73019      8.73587        -0.249603      0.006411      0.231228
O       3.87040      1.98311      2.50707         0.564734     -0.569126     -0.083299
O       3.97017      1.95316     15.03126        -0.644035      0.081516      0.021590
O       3.86666     13.58110      2.48208        -0.300951      0.214486      0.145565
O       3.86039     13.70977     14.95900        -0.017976     -0.286500      0.037255
O       0.08520      2.01401      2.65299        -0.857626     -0.236718     -0.635115
O       0.04274      2.03600     14.89157         0.265642     -0.529160      0.156195
O      15.57696     13.59453      2.49976        -0.332058     -0.119235     -0.279535
O       0.04198     13.54814     14.97209        -0.543002      0.711191     -0.361961
O       3.92787      1.75060      6.61722        -0.211413      0.462021     -0.132011
O       3.94477     13.64265      6.62927        -0.565046     -0.367625      0.026520
O      15.59808      1.81189      6.73475         0.158290      0.573611     -0.103242
O      15.58162     13.58146      6.69870         0.282629     -0.083215      0.214071
O       3.91238      1.90407     10.90267        -0.747688     -0.110412     -0.200663
O       3.99885     13.56632     10.77429        -1.036447      0.323737      0.026430
O       0.00133      1.88032     10.97303        -0.237311      0.039359     -0.619415
O       0.00403     13.68189     10.84511         0.017505     -0.071029     -0.231180
O       3.86626      5.93996      2.46252         0.816462     -0.337000      0.099397
O       3.91530      5.80270     14.99228        -0.060139     -0.281947     -0.258557
O      15.56756      5.70573      2.54160        -0.395586      0.086403      0.216103
O       0.02013      5.79891     14.86215         0.502397     -0.191181      0.358488
O       3.89136      5.97944      6.66530         0.096109     -1.076585      0.296557
O       0.01231      5.80184      6.67637        -0.210970     -0.022131      0.048936
O       3.84561      5.75472     10.68477        -0.225424      0.279664      0.508397
O      15.54242      5.84341     10.99587         0.059291     -0.737772     -0.226856
O       3.89838      9.63576      2.42754        -0.340138      0.437701      0.262048
O       3.82182      9.78082     14.98594         0.395855     -0.057723     -0.075987
O      15.56700      9.69570      2.53503        -0.506104      0.101042     -0.049288
O       0.00594      9.69249     15.20679        -0.198778      0.191432     -0.769074
O       3.98562      9.71661      6.62751        -0.991980      0.256835      0.009890
O       0.06239      9.65105      6.69786        -0.397568      0.487350     -0.185474
O       3.84372      9.72440     10.87426         0.022284     -0.353271     -0.285832
O       0.04582      9.73859     10.89428        -0.698325      0.216935     -0.305563
O       7.79709      2.00041      2.47342        -0.061409     -0.104459      0.227897
O       7.82799      1.82177     14.95076        -0.558259      0.264875      0.424084
O       7.72910     13.38911      2.50951         1.537563      0.651204     -0.062317
O       7.82945     13.57225     14.75270        -0.822397     -0.243437      0.672621
O       7.78660      1.93602      6.73726         0.178102     -0.173853     -0.628923
O       7.84982     13.64493      6.48562         0.332946      0.080167      0.650966
O       7.81491      2.03125     10.73760         0.402397     -0.110050      0.400141
O       7.80899     13.67853     10.90616        -0.753170     -0.324868     -0.040368
O       7.72615      5.83790      2.43155         0.547886     -0.401296      0.216256
O       7.81396      5.84595     15.13011        -0.113261     -0.120524     -0.161129
O       7.73664      5.99066      6.62257         1.174941     -1.211992     -0.063188
O       7.81235      5.76201     10.92106        -0.307214      0.347904     -0.051638
O       7.91895      9.83258      2.56386         0.018507     -0.359476     -0.090706
O       7.71651      9.75569     14.87663         1.010441      0.154830      0.319919
O       7.80659      9.67622      6.54669         0.833029      0.154741      0.180368
O       7.74694      9.61781     10.75004        -0.606863      0.446812      0.151750
O      11.77561      1.78562      2.54499        -0.944930      0.055516      0.171253
O      11.74397      1.86303     14.92090         0.403255     -0.443226      0.175926
O      11.71473     13.59155      2.56722        -0.372048      0.632760     -0.652925
O      11.66564     13.59934     14.98750         1.091257      0.218084      0.045053
O      11.74533      1.89002      6.69018        -0.871142      0.461718      0.244937
O      11.76110     13.61083      6.70882        -0.543580     -0.136493      0.096810
O      11.65717      1.90132     10.88264         0.615437      0.468590     -0.234189
O      11.63094     13.58264     10.80902         0.449567     -0.083240     -0.347547
O      11.64207      5.82141      2.56377         0.722452     -0.050541      0.209016
O      11.70328      5.88592     14.97334        -0.084679     -0.277189      0.656515
O      11.68461      5.86998      6.72914        -0.094542     -0.393413     -0.015279
O      11.63969      6.01932     11.05964         1.498893     -0.716952     -0.624156
O      11.72690      9.61786      2.51674        -0.381784      0.346892     -0.050029
O      11.72679      9.53743     14.89678        -0.432764      0.319421      0.303379
O      11.77524      9.66401      6.84999         0.039025      0.320931     -0.376207
O      11.69457      9.68786     10.84465         0.831406      0.272498     -0.058857
O       2.02896      3.90984      2.64531        -0.206213     -0.587022     -0.672373
O       1.93454      3.91439     14.83260         0.442116      0.165909      0.341412
O       1.88173     15.57625      2.43332         0.410913      0.138069      0.101495
O       1.97719      0.03195     14.89571        -0.362616     -0.459088      0.056645
O      13.53025      3.82687      2.68435         0.354698     -0.019601     -0.351229
O      13.64759      3.80414     14.98570         0.046463      0.837721      0.356610
O      13.66749     15.57248      2.55900         0.145662     -0.412838      0.070771
O      13.86193     15.59975     14.82297        -0.417660     -0.647368      0.318984
O       2.04132      3.78932      6.66392        -0.336497      0.135494     -0.112798
O       1.91808     15.48132      6.44697         0.000090      0.083659      1.048470
O      13.61621      3.90319      6.64980         0.227901     -0.248368      0.461984
O      13.61653     15.54792      6.67793         0.350781     -0.090080      0.185563
O       1.85791      3.78198     11.08130         0.496170      0.080714     -1.329776
O       1.94329     15.56326     11.07397         0.252893      0.156959     -0.902390
O      13.56884      3.90615     10.78931        -0.043050     -0.084338      0.115458
O      13.50850      0.02085     10.91902         0.726874     -0.342712     -0.092998
O       1.85405      7.73375      2.63572        -0.156912      1.298531      0.007751
O       1.94909      7.67501     14.94322        -0.028344      0.865415     -0.172505
O      13.60682      7.71191      2.44122         0.327157      0.621241      0.333329
O      13.75193      7.74532     14.99357        -0.176513     -0.430107      0.398670
O       2.06636      7.76539      6.69108        -0.527853      0.367854     -0.205919
O      13.63441      7.77248      6.72701         0.366216      0.026889      0.426865
O       1.81821      7.69433     10.81200         0.531514      1.376123     -0.277134
O      13.84188      7.76179     10.80494        -0.544312      0.613314     -0.357660
O       1.86828     11.66567      2.45902         0.415310      0.154235      0.053773
O       1.88581     11.72865     14.94747         0.272005     -0.325944      0.071757
O      13.53652     11.69117      2.44572         0.590174     -0.805854      0.065729
O      13.65035     11.68045     15.03953        -0.003636     -0.132848     -0.184798
O       2.00200     11.69904      6.72275        -0.274560     -0.376982     -0.055058
O      13.61679     11.61477      6.76430         0.440238      0.668743     -0.143069
O       1.93921     11.66879     10.69404        -0.047252      0.459105      0.297301
O      13.67076     11.69701     10.93219         0.102372     -0.440454     -0.621845
O       5.79618      3.92855      2.35071        -0.261485     -0.366266      0.147552
O       5.96283      3.90658     15.00198        -0.573793     -1.043054      0.305716
O       5.89102     15.56822      2.40518        -0.120536     -0.014916      0.736630
O       5.87780     15.50497     14.95506        -0.214757      0.694033      0.175804
O       5.74537      3.81361      6.50385         0.388145      0.182739      0.260981
O       5.86896     15.53170      6.55676         0.549544      0.480872      0.034167
O       5.74487      3.87486     10.88536         0.482582     -0.167441      0.156830
O       5.94530      0.09458     10.91476        -0.560612     -1.547042     -0.448473
O       5.91698      7.81785      2.39462         0.242353     -0.257565      0.450639
O       5.77513      7.85289     15.02658         0.366897     -0.295790     -0.600982
O       5.90899      7.72553      6.70198        -0.542251      0.661699     -0.010349
O       5.73348      7.70402     10.81056         0.374242      1.156880     -0.081379
O       5.78469     11.62538      2.44052        -0.151769      0.041472      0.963266
O       5.79983     11.71025     14.85526         0.000241     -0.197998      0.384763
O       5.98340     11.68548      6.50774        -0.298350     -0.713789      0.547985
O       5.85962     11.59322     10.81718         0.160371      0.825645     -0.179069
O       9.90573      3.82452      2.58248        -0.478415     -0.531603      0.088962
O       9.73999      3.75064     15.16847         0.051459      1.222923     -0.550744
O       9.60143     15.49090      2.57946         0.567058      0.359940     -0.172366
O       9.75269     15.53276     15.00819         0.199994      0.097403      0.129334
O       9.65024      3.86892      6.77469         0.513357      0.745675     -0.454327
O       9.85879     15.58298      6.76830        -0.485917      0.253309     -0.504059
O       9.81304      3.88924     10.86315         0.154557     -0.162253      0.152180
O       9.77198     15.58929     10.74941        -0.318878      0.548723      0.145121
O       9.72837      7.73267      2.34361        -0.141574      0.840506      0.312522
O       9.58354      7.74535     14.97660         0.630546      0.130631      0.246201
O       9.79753      7.83619      6.79286        -0.019065     -0.950910     -0.366619
O       9.68022      7.89280     10.98075        -0.016236     -1.380129      0.157586
O       9.85324     11.67005      2.35768        -0.059767     -0.628416     -0.039538
O       9.80026     11.61891     15.00202        -0.141306      0.321261     -0.018717
O       9.81993     11.67973      6.64312        -0.159065      0.115982      0.194193
O       9.67403     11.70347     10.74798        -0.227891     -0.215307      0.445882
