  # total energy = -7876.12627133 
CRSYTAL
PRIMVEC
    15.6080000000000005    0.0000000000000000    0.0000000000000000
     0.0000000000000000   15.6080000000000005    0.0000000000000000
     0.0000000000000000    0.0000000000000000   16.6239999999999988
PRESSURE
-0.004105 -0.112207 -0.681644 -0.023418 -0.229641 0.045316
PRIMCOORD
320 1
Pb       4.02543      3.99877      4.14802        -0.614532     -0.718628     -0.005296
Pb       4.09847      4.09514      0.16213        -0.469335     -0.043210     -0.496535
Pb       3.86576      0.03467      4.00525         0.408799     -0.046380     -0.288439
Pb       3.76240     15.57377     16.61378        -0.006116     -0.168431     -0.081103
Pb       0.10122      3.83309      4.18807        -0.062637     -0.001426     -0.293555
Pb      15.47478      3.80171     16.60656         0.056938      0.496192      0.438326
Pb      15.55400     15.54767      4.00725        -0.040528     -0.136952      0.057397
Pb      15.47836     15.56341     16.55659         0.465869     -0.335526      0.625390
Pb       3.62945      3.75882      8.35354         0.661139      0.278766     -0.182200
Pb       3.89290      0.08657      8.28570        -0.291068     -0.658185      0.443510
Pb      15.54128      3.77854      8.29170        -0.212416      0.034841     -0.397720
Pb       0.15063     15.58425      8.20946        -0.824527     -0.255315     -0.179226
Pb       3.90747      3.93910     12.39187        -0.123493      0.177658     -0.216375
Pb       3.83707     15.39727     12.28927        -0.231233      0.113495      0.742591
Pb      15.59079      3.78025     12.43916         0.260757      0.291285     -0.014384
Pb      15.56572      0.32490     12.62907         0.020942     -0.759040     -0.523716
Pb       3.79736      7.86887      4.33042        -0.314905     -0.087629     -0.899293
Pb       3.80956      7.74321     16.62314         0.254205     -0.240697     -0.352183
Pb       0.25499      7.91304      4.26731        -0.694446     -0.060805     -0.643311
Pb       0.04110      7.73071      0.00945        -0.217852      0.319842      0.103352
Pb       4.07204      7.66362      8.11704        -1.262815      0.313284      0.595955
Pb      15.37577      7.74187      8.61025        -0.000193      0.271400     -0.859370
Pb       3.92591      7.90188     12.42831        -0.178358     -0.689203      0.127217
Pb      15.58575      7.99562     12.61540         0.168119     -0.285548      0.233230
Pb       3.81878     11.66976      4.07300         0.383566      0.128763      0.341053
Pb       3.92600     11.61510     16.45116        -0.528964      0.237108     -0.369717
Pb      15.58801     11.67009      4.05080        -0.460741     -0.264861      0.534147
Pb      15.53303     11.85425     16.56170         0.157902     -0.736729     -0.112546
Pb       3.83655     11.62606      8.03571         0.228427      0.776125      0.860529
Pb      15.57857     11.60356      8.33402        -0.442335      0.316555     -0.531689
Pb       4.06279     11.68047     12.27138        -0.677766      0.058339      0.970064
Pb       0.23787     11.51867     12.29262        -0.978639      0.817213      0.841102
Pb       7.85901      3.71152      4.20151         0.074493      0.084086      0.310260
Pb       7.84495      4.00896      0.12818         0.070243     -0.168108     -0.955767
Pb       7.76606     15.41010      3.98566         0.275369      0.469907      0.077316
Pb       7.91118      0.19063      0.13137         0.279420     -0.503900     -0.562531
Pb       7.55192      3.98088      8.36330         0.511206     -0.094512     -0.467794
Pb       7.88941     15.50636      8.34150        -0.446857      0.289762     -0.114133
Pb       7.63574      3.75818     12.41208         0.803579      0.533720      0.093186
Pb       7.63393     15.56525     12.57243         0.559388     -0.489965     -0.128793
Pb       7.68393      7.86390      4.15579         0.770856     -0.000875      0.466558
Pb       7.82557      8.04094     16.58515        -0.571326     -0.819069     -0.320438
Pb       7.82264      7.75681      8.25787         0.029979      0.058534     -0.045625
Pb       7.83027      7.54299     12.35033         0.216414      0.678889      0.117274
Pb       8.01916     11.69069      4.34746        -0.487416      0.410615     -0.821395
Pb       7.62423     11.68952      0.01500         0.460631     -0.013625     -0.038652
Pb       7.60114     11.74344      8.07733        -0.221387      0.217419      0.634938
Pb       7.66253     11.45320     12.39739         0.596427      0.661200      0.063139
Pb      11.80714      3.91841      4.40522         0.020349      0.148334     -0.657466
Pb      11.83958      4.09794      0.14895        -0.252914     -0.328206     -0.109491
Pb      11.51012     15.46117      4.18741        -0.309750      0.025175     -0.515283
Pb      11.55243     15.50246      0.10780         0.171364      0.278328     -0.954786
Pb      11.77045      4.13177      8.42770        -0.079324     -0.085908     -0.398382
Pb      11.61894      0.14305      8.25041         0.452654     -0.268176      0.492582
Pb      11.85819      3.81517     12.65344        -0.272146     -0.344140     -0.289119
Pb      11.88696     15.52855     12.41984        -0.846516      0.275832      0.459649
Pb      11.73314      7.43290      4.02096         0.310345      1.722364      0.841405
Pb      11.37037      7.77691      0.03284         0.826163      0.333392     -0.298154
Pb      11.51442      7.97020      8.24063         0.815180     -0.552092     -0.096551
Pb      11.48430      7.90544     12.70340         0.076994      0.387166     -0.467605
Pb      11.62425     11.24894      4.29457         0.655906      0.848423     -0.432297
Pb      11.82103     11.80892     16.50080        -0.641348     -0.573157      0.352989
Pb      12.07141     11.99811      8.45592        -0.427076     -1.284250     -0.222241
Pb      11.60604     11.90975     12.40645         0.333354     -0.408238     -0.312932
Ti       1.80798      1.81771      2.13304         0.814759      0.245228      1.022040
Ti       1.97994      1.98551     14.74105         0.400725     -1.201953     -0.613633
Ti       1.90350     13.49758      2.16530         0.146959      1.501713     -0.037236
Ti       1.90179     13.68318     14.48547         1.183621     -0.960775     -0.318624
Ti      13.53619      1.91705      2.21590        -0.561531      0.079327     -0.942886
Ti      13.59831      1.96549     14.87310        -1.957501     -1.009271     -0.174658
Ti      13.53413     13.59695      2.28496        -0.090791     -0.541641     -0.321936
Ti      13.68259     13.61654     14.64184        -0.794259      0.634792     -0.706851
Ti       1.90176      1.92810      6.34569         0.081748      0.578458     -0.422691
Ti       1.93733     13.72939      6.09829        -0.304497     -0.996012      1.174957
Ti      13.60819      1.87486      6.27508         1.529481      0.080926     -0.071423
Ti      13.71165     13.64684      6.17058         0.208275     -0.135047      0.651744
Ti       1.94749      1.91395     10.54526        -0.243249     -0.128495     -0.107126
Ti       1.94631     13.52171     10.38352         0.290736      0.703503      1.650837
Ti      13.58070      1.93846     10.47288         0.294429     -0.264836     -0.634196
Ti      13.76064     13.72952     10.49913         0.433052     -1.460339      0.911788
Ti       2.04679      5.70900      2.24140        -0.532929      1.155588      0.060141
Ti       1.82746      5.70167     14.72693         0.904266      1.439286      1.037228
Ti      13.84278      5.83304      2.16934        -0.586629      0.844526      0.025761
Ti      13.53995      5.95489     14.67308         0.388488      0.306266     -0.315141
Ti       1.85200      5.87710      6.32340        -0.068520      0.119899      0.290697
Ti      13.66827      5.88817      6.30003        -0.377813     -0.174654      0.553110
Ti       1.97965      5.87246     10.45506         1.376863     -0.797151     -0.557505
Ti      13.82081      5.80794     10.60829        -1.595705     -0.109591     -0.384842
Ti       1.92870      9.75630      2.16180        -0.615914     -1.429151      0.223782
Ti       1.97211      9.65347     14.61262        -0.966430      0.715925     -0.010383
Ti      13.65386      9.70560      2.21409         0.129629     -0.471494     -0.163385
Ti      13.62919      9.74316     14.61460         0.038227      0.181290      1.577076
Ti       1.77985      9.76638      6.46297         0.997839     -0.382758     -0.840096
Ti      13.65347      9.64057      6.25351        -0.759809      0.927263     -0.191349
Ti       2.00858      9.67161     10.40131         0.213399     -0.056293      0.172302
Ti      13.49173      9.62825     10.69621        -0.128560      1.779855     -1.252110
Ti       5.82475      2.02817      2.12139        -0.196577     -1.659484     -0.194173
Ti       5.86905      2.01380     14.62555         0.165345     -0.073592      0.796241
Ti       5.83199     13.51669      2.15162         0.401338      1.294658      0.717920
Ti       5.93409     13.78482     14.86598        -0.543154     -1.305954     -1.989365
Ti       5.86241      1.84680      6.39412        -0.305621      1.068533     -0.425862
Ti       5.70413     13.77917      6.30789         0.475384     -1.400682      1.030723
Ti       5.84506      1.88054     10.51613        -0.873447     -0.191828      0.690513
Ti       5.91106     13.57983     10.54160        -1.216485     -0.045163     -2.541221
Ti       6.01513      5.85442      2.31202        -1.201073      0.969559     -0.335617
Ti       5.86515      5.76860     14.64149        -0.213715      2.040062     -0.486329
Ti       5.76097      5.79079      6.22095         0.141251     -0.358705      1.166894
Ti       5.92147      5.87321     10.51967        -0.825627     -0.611251      0.468004
Ti       5.78035      9.74657      2.28983         0.003012     -0.048335     -0.948018
Ti       5.83324      9.65031     14.62743        -0.113148      0.015284      0.994342
Ti       5.78658      9.68446      6.25384         0.004030      1.442284     -0.048326
Ti       5.89319      9.62193     10.38524        -0.301567      0.611799     -0.205393
Ti       9.76524      2.06498      2.16449        -0.243112     -1.601406      0.586552
Ti       9.71177      2.05746     14.64270         0.966489     -1.702906      0.030431
Ti       9.79895     13.52196      2.17635        -1.213981      0.367054     -0.346675
Ti       9.66767     13.62982     14.64262         0.510780      1.453364     -0.126293
Ti       9.79948      1.89506      6.31301        -0.980564      0.388795     -0.307094
Ti       9.84545     13.59204      6.47252        -0.315651      0.232093     -1.515543
Ti       9.65206      1.92463     10.56305         1.139993      0.038645     -0.164113
Ti       9.68811     13.65180     10.37478         0.106491     -0.064156      1.948626
Ti       9.74775      5.79894      2.28836         0.561283      0.447178      1.100843
Ti       9.64470      5.84683     14.51746         0.095185     -0.239147      0.810621
Ti       9.65961      5.78053      6.35479         1.088447     -0.242209     -0.280403
Ti       9.94902      5.70443     10.47289        -2.316388      0.957786     -0.107610
Ti       9.63992      9.63549      2.25340         0.936522      0.968636     -0.273333
Ti       9.73141      9.90600     14.64065         0.314336     -1.244958     -0.828994
Ti       9.71832      9.75755      6.35763         0.681432     -0.307790      0.288417
Ti       9.73441      9.74843     10.29479         0.423232     -0.068159      1.284947
O       1.88404      1.60462      0.41061         0.156206      0.651645     -0.938901
O       1.77579      1.96182     12.87960         0.205276      0.229192      1.125831
O       1.76174     13.59306      0.39364         0.493896     -0.054030     -0.009658
O       2.05155     13.58287     12.67316        -0.444519      0.481901      1.313597
O      13.43714      1.97063      0.34654         0.408767      0.125071      1.018494
O      13.60530      1.91785     13.04330         0.640496     -0.265259     -0.747036
O      13.43090     13.42196      0.45002         0.730467      0.137671     -0.151436
O      13.64467     13.77600     12.86360         0.095766     -0.056761      0.288492
O       1.85142      2.01776      4.58275        -0.007045     -0.114249     -1.034197
O       1.99385     13.66771      4.33305        -0.060709     -0.142778      0.624572
O      13.66896      1.90592      4.46195        -0.115486      0.084137     -0.192777
O      13.56036     13.65037      4.40262         0.198211      0.104094      0.499476
O       1.87107      2.10004      8.69974        -0.048354     -0.461676      0.517395
O       1.91390     13.72744      8.66100        -0.196166     -0.455541     -0.644157
O      13.63590      1.93544      8.66457        -0.244327      0.081425      0.415738
O      13.77498     13.58395      8.71085         0.097910      0.146848     -0.500594
O       2.07785      5.95925      0.48313        -0.255153     -0.217548     -1.048322
O       1.97847      5.74838     13.02587        -0.271803     -0.238857     -1.335862
O      13.60777      6.04671      0.35912        -0.185282     -0.963241     -0.239798
O      13.60775      5.67368     12.87098         0.067244      0.297171     -0.291945
O       1.75235      5.83825      4.49290         0.256210     -0.678906      0.130906
O      13.56651      5.75108      4.52307         0.436187     -0.336709     -0.591853
O       2.19509      5.67497      8.65871        -0.987173      0.587027      0.473929
O      13.69892      5.83272      8.76109        -0.097667     -0.020504      0.561232
O       1.88380      9.67531      0.38428        -0.001479      0.135010     -0.243264
O       1.94268      9.49158     12.80630        -0.075190      0.163503     -0.282711
O      13.73149      9.65977      0.40030        -0.322493      0.150729      0.405589
O      13.56700      9.75251     12.88341        -0.088288     -0.305709     -2.266922
O       1.79780      9.77857      4.64246         0.368609     -0.370976     -0.004057
O      13.77992      9.83099      4.48437        -0.320132     -0.332950      0.837997
O       1.94668      9.85469      8.62467        -0.372137     -0.468210      0.136958
O      13.53994      9.71646      8.81117         0.221108     -0.329113      0.692258
O       5.84131      2.11862      0.30343         0.273938     -0.314768      1.090401
O       5.86036      2.00379     12.81643         0.126847     -0.265443      0.518550
O       5.99068     13.64344      0.36518        -0.549962     -0.498972     -0.648609
O       5.90313     13.62798     12.96414        -0.007009     -0.193874      0.565341
O       5.75566      1.83725      4.61922        -0.059378      0.426095     -0.200544
O       5.73297     13.67797      4.55112         0.109608      0.060167     -0.180462
O       5.73293      1.84322      8.78073         0.332839      0.069061     -1.340732
O       5.78445     13.58576      8.68039        -0.026186      0.296101      1.249149
O       5.96667      5.72769      0.49887        -0.043558      0.331078      0.329092
O       5.92675      5.77574     12.81921        -0.114397      0.051471      0.074544
O       5.73693      5.73949      4.48775         0.373130     -0.180318     -0.661602
O       5.85016      5.98253      8.73755         0.181655     -0.364315     -0.798017
O       5.89610      9.65879      0.42740        -0.676784      0.052270      0.983623
O       5.94743      9.75351     12.85099        -0.142918     -0.483223     -0.365741
O       5.70457      9.87950      4.44146         0.309689     -0.643341      1.107019
O       5.86458      9.62381      8.61290        -0.286404     -0.244160      0.026504
O       9.53506      2.05627      0.37876         0.687013      0.059580      0.122972
O       9.69451      1.92639     12.87189        -0.192844     -0.004641     -0.935100
O       9.66401     13.63670      0.36702         0.432371     -0.205745      0.615245
O       9.65632     13.64943     12.82970        -0.014842     -0.206011      0.069639
O       9.78380      1.72885      4.52258        -0.093043      0.723247      0.805648
O       9.66212     13.74817      4.59172         0.188364     -0.238171      1.349704
O       9.97490      1.92413      8.77928        -0.450813      0.086984     -0.148330
O       9.79441     13.70604      8.62229        -0.125204     -0.325610     -1.009932
O       9.73569      5.84816      0.54260        -0.371815     -0.185634     -1.420163
O       9.72547      5.76444     12.74509         0.035522      0.535997     -0.253181
O       9.82431      5.76953      4.54836         0.128639      0.129301      0.649722
O       9.84474      5.68156      8.62322        -0.364193     -0.079081      0.001819
O       9.72083      9.58944      0.41735        -0.184484      0.209236      0.458465
O       9.68331      9.85944     12.78683        -0.112517     -0.408200      1.188515
O       9.59158      9.74142      4.56715         0.047032      0.296612     -0.879078
O       9.90071      9.73485      8.52283        -0.358624      0.128720      0.078611
O       3.89285      1.83062      2.43945         0.427089      0.469288     -0.168188
O       3.93961      2.02091     14.89884        -0.744419     -0.673919      0.151333
O       3.91255     13.51048      2.37344        -0.722569      0.374791     -0.157606
O       3.79173     13.80369     15.01398         0.624223     -0.269182      0.184939
O      15.48457      1.80706      2.39840         0.575100      0.277699      0.006810
O      15.48858      1.89436     15.15091         0.988324      0.239234     -0.511337
O      15.50339     13.60372      2.49956         0.194055     -0.035390     -0.225443
O       0.02610     13.58977     14.94401        -0.717856     -0.139294     -0.140857
O       3.79159      1.99060      6.74356         0.256545     -0.182800     -0.160706
O       3.78118     13.63278      6.65855         0.093415      0.051869     -0.507862
O      15.60419      1.81312      6.67884        -0.395657      0.603170      0.052982
O       0.00004     13.64577      6.42267         0.093636      0.127579      0.193054
O       3.87289      1.88336     10.77117        -0.427413      0.456093      0.225975
O       3.96512     13.47760     10.78528        -1.166674      0.412155     -0.006692
O      15.52252      1.92536     10.83410         1.145880     -0.193614      0.322785
O       0.07950     13.41339     10.76209        -0.120745      0.405850     -0.323946
O       3.89729      5.83171      2.46228         1.089946     -0.677291      0.561110
O       3.93204      5.79732     15.00517        -0.840690     -0.184320      0.354470
O       0.08031      5.66690      2.23562        -0.719418      0.224999      0.618847
O      15.51397      5.93841     15.01568         0.050777     -1.237300      0.002981
O       3.83196      5.96279      6.35332         0.583456     -0.681803      0.510316
O      15.53389      6.07312      6.70163         0.256733     -0.485559      0.077329
O       3.88710      5.82881     10.85743         0.120227     -0.397828      0.252858
O       0.04638      5.81209     10.65051         0.165332      0.317708      0.488764
O       3.79983      9.81741      2.53859         0.551200     -0.323135     -0.158925
O       3.81243      9.62925     14.90575         0.825729     -0.306828      0.269580
O       0.00633      9.74207      2.66914         0.309730     -0.145439     -1.102051
O      15.51261      9.73830     14.72513         0.970648     -0.207234      0.519174
O       3.84441      9.75668      6.64753         0.469734     -0.565835     -0.470396
O      15.53385      9.52304      6.75830         0.029190      0.287984      0.208504
O       3.92136      9.64875     10.80573        -0.039453     -0.013367     -0.320518
O      15.57288      9.65621     10.87011         0.567421     -0.157254     -0.464558
O       7.83654      2.01421      2.55105        -1.234427     -0.328311     -0.316107
O       7.82562      2.01194     14.94336        -1.425682      0.249719      0.027720
O       7.79949     13.56200      2.61085        -0.294093     -0.350538     -0.393773
O       7.77983     13.48809     14.99993        -0.444517      0.007804     -0.059180
O       7.73488      1.86011      6.59272         0.061452      0.168927      0.451977
O       7.61081     13.81365      6.78739         0.917718     -0.736685     -0.881310
O       7.71333      1.74259     10.75410         0.413986      0.237568      0.121273
O       7.73764     13.57120     10.64846         1.749401     -0.053021      0.233567
O       7.82014      5.87146      2.85440        -0.042017     -0.428811     -1.164393
O       7.78208      5.86880     14.92096         0.508986     -0.310046      0.105532
O       7.79447      5.86599      6.62760        -0.716789     -0.150867      0.041449
O       7.79533      5.84745     10.78033        -0.434774     -0.076196     -0.395228
O       7.69370      9.69433      2.48014         0.800761     -0.192234      0.334474
O       7.70934      9.78092     14.99097         0.559729      0.023174     -0.120135
O       7.73698      9.85305      6.53410        -0.432359     -0.607749      0.220884
O       7.83299      9.54818     10.47954        -0.302618      0.450464      0.775668
O      11.59178      2.01728      2.41774         1.224059     -0.194536      0.234671
O      11.64435      1.72538     14.91740         0.034405      0.702364      0.334810
O      11.59899     13.50106      2.59364         0.762165      0.311244     -0.296851
O      11.60146     13.63910     14.85369         0.676164     -0.344046      0.391140
O      11.77459      1.70446      6.45659        -1.254059      0.948899      0.312330
O      11.72219     13.65281      6.60733        -0.265874     -0.002523      0.056917
O      11.71851      2.07082     10.95170        -0.036132     -0.676214     -0.414924
O      11.83228     13.69088     10.78475        -1.379926      0.020683     -0.244878
O      11.73740      5.88267      2.40517        -0.697795     -0.777504     -0.111656
O      11.60080      6.00980     14.85704         0.010010     -0.672219      0.451222
O      11.73195      5.75344      6.64214        -0.558229     -0.278767      0.015904
O      11.69989      5.52713     10.64319         1.439721     -0.136980      0.541395
O      11.64960      9.58057      2.71302         0.101537      0.072899     -0.958692
O      11.66571      9.69618     14.90269        -1.093476      0.059735      0.056277
O      11.67626      9.85503      6.42026        -0.440408     -0.328338      0.251764
O      11.61717      9.56138     10.90651         0.053553      0.451259     -0.287136
O       1.96833      3.78990      2.38707        -0.154305     -0.451325      0.192157
O       1.89597      3.76642     15.29677        -0.330045      0.961956     -0.719328
O       1.88319     15.50248      2.53996         0.245999      0.704075     -0.152079
O       1.78173      0.00067     14.88736         0.393104      0.209571     -0.039452
O      13.60805      3.86113      2.36003        -0.002825     -0.059984      0.207976
O      13.51519      3.85036     15.00469         0.021230      1.025627      0.329750
O      13.46729     15.49964      2.22860         0.167301      0.754186      0.837232
O      13.63267     15.45735     15.17649        -0.071002      0.378076     -0.585436
O       1.80879      3.92184      6.63010        -0.020077      0.079658     -0.090587
O       1.90925     15.60046      6.46740         0.186124     -0.213450      0.403543
O      13.74130      3.87876      6.50909        -0.117801     -0.542837      0.274132
O      13.70130     15.54438      6.58951         0.033631     -0.243112     -0.123826
O       1.92582      3.88850     10.93547         0.069208     -0.075936     -0.362420
O       1.96792      0.01731     10.69591        -0.193999     -0.531379      0.110475
O      13.84620      3.78335     10.84606        -0.727035      1.328932     -0.089930
O      13.75596     15.58260     10.78288        -0.205974      0.765404      0.202944
O       2.02528      7.78769      2.61077        -0.499046      0.392478     -0.055627
O       1.75687      7.72026     14.92713         0.801413      0.094382      0.368153
O      13.77091      7.72049      2.60124        -0.012125     -0.121915     -0.208915
O      13.52329      7.82394     14.72325         0.494556     -0.921269      0.254422
O       1.99637      7.73831      6.53404        -0.170095      0.757612      0.338387
O      13.38493      7.80488      6.42875         0.595381     -0.456257      0.661924
O       2.02655      7.75220     10.60012        -0.514263      0.025251      0.292092
O      13.58127      7.74269     10.85829         0.457812     -1.080805      0.207656
O       1.87595     11.66591      2.51634        -0.004308     -0.255744     -0.240609
O       2.03459     11.63506     14.69619        -0.364165      0.245787      0.733338
O      13.62286     11.57608      2.55049        -0.109047      0.447810     -0.407093
O      13.58689     11.69245     14.91198         0.109420      0.295064      0.292756
O       1.84214     11.68797      6.49920        -0.044072      0.237579      0.571677
O      13.68201     11.61464      6.66697         0.319466      1.101958      0.116918
O       2.04764     11.56526     10.81808        -0.219486      0.133149     -0.567460
O      13.54718     11.70436     10.87379         0.108611     -0.582086     -0.297310
O       5.93372      3.91442      2.46596        -0.506834     -0.802871      0.473198
O       5.86401      3.98771     14.93413         0.147455     -2.376829      0.275826
O       5.85261     15.49372      2.36285        -0.011887      1.040703      0.283009
O       6.09562      0.00200     14.95170        -0.775031      0.901448      0.006080
O       5.72700      3.95302      6.62453         0.489409     -0.629586      0.308410
O       5.59882      0.01354      6.75210         0.452062      0.037469     -0.542071
O       5.89626      3.83501     10.73093        -0.085195      0.139011     -0.107334
O       5.69983     15.42789     10.97341         0.916091      1.395629     -0.784805
O       5.81603      7.73409      2.79767        -0.287109      0.472078     -1.093020
O       5.76732      7.70518     15.05114         0.360923      1.039437     -0.420378
O       5.79933      7.77219      6.53579         0.469733      0.185128     -0.324635
O       5.75788      7.73751     10.91782         0.667534      0.475957     -0.449653
O       5.77388     11.64032      2.46438         0.255047     -0.053080     -0.189172
O       5.71479     11.59022     14.98333         0.123399      0.254078      0.263337
O       5.73847     11.66716      6.66322         0.277076      0.228966     -0.486516
O       5.83876     11.55893     10.74235         0.618817     -0.239293      0.095981
O       9.75070      3.91196      2.58334        -0.370161      0.083462     -0.014005
O       9.75097      3.91730     14.83618         0.262014      1.007058      0.527438
O       9.78189     15.57139      2.42905        -0.221630      0.101574     -0.110085
O       9.63446     15.58829     15.00485        -0.491435     -0.477524      0.274800
O       9.61866      3.83830      6.48693         0.535646     -0.464310      0.211405
O       9.72909      0.02667      6.77210         0.124439     -0.510568     -0.080765
O       9.48417      3.80380     10.75076         0.278193      0.093893     -0.065043
O       9.64806     15.50800     10.63548         0.447110      0.299826      0.428555
O       9.69313      7.76371      2.54944        -0.322526     -0.170369      0.008040
O       9.57453      7.82637     14.88356         0.642066     -0.223246     -0.064450
O       9.68226      7.84284      6.67021         0.109063     -0.692346     -0.056311
O       9.77332      7.69052     10.55507         0.167391     -0.180098      0.520921
O       9.72023     11.63176      2.44966        -0.349142     -0.869079      0.514733
O       9.69021     11.68277     14.99327         0.019630      0.072869     -0.040015
O       9.64188     11.71712      6.55135        -0.217106      0.846757      0.000433
O       9.83401     11.64775     10.64167        -0.214676      0.249894      0.005125
