  # total energy = -7880.35207936 
CRSYTAL
PRIMVEC
    15.6080000000000005    0.0000000000000000    0.0000000000000000
     0.0000000000000000   15.6080000000000005    0.0000000000000000
     0.0000000000000000    0.0000000000000000   16.6239999999999988
PRESSURE
-0.194046 -0.412911 -0.129837 -0.002131 -0.158031 -0.016876
PRIMCOORD
320 1
Pb       3.96524      4.07905      4.22165        -0.036171     -0.672874     -0.256454
Pb       3.96596      4.02692     16.49166         0.085157     -0.670129      0.840094
Pb       3.89740      0.07683      4.00427        -0.107320     -0.135007      0.402951
Pb       3.85721      0.03232     16.49030        -0.012323     -0.248046      0.555699
Pb       0.17586      3.84762      4.21526        -0.396424      0.105323     -0.447778
Pb      15.57862      3.79493      0.01191         0.213678      0.539999      0.169394
Pb      15.39101      0.04330      4.12676         0.607042     -0.664389     -0.668475
Pb      15.47105      0.00564     16.55941         0.591818     -0.266116      0.634488
Pb       3.79496      3.82263      8.22913         0.083582      0.365043      0.399307
Pb       3.87491     15.49236      8.05261        -0.050651      0.296781      0.816194
Pb      15.54375      3.85751      8.39726        -0.386002      0.556702      0.001226
Pb      15.56590     15.54097      8.24155         0.208641     -0.243371      0.251649
Pb       3.78090      3.85355     12.54574         0.107179     -0.274288     -0.387686
Pb       3.93315     15.54324     12.50687         0.007281      0.073921     -0.553492
Pb       0.00510      4.01738     12.62009        -0.052025     -0.383675     -0.168779
Pb       0.14859     15.55611     12.45264        -0.494141     -0.015272      0.313360
Pb       3.89692      7.86761      4.09189         0.112005     -0.044924      0.021036
Pb       4.00484      7.78190     16.60490         0.037576     -0.145744      0.014129
Pb       0.10146      7.78270      4.22387        -0.293574      0.677941     -0.161377
Pb      15.51255      7.75682     16.60028        -0.007324      0.224665     -0.072013
Pb       3.76634      7.72958      8.28953         0.622203     -0.162866      0.012341
Pb      15.37095      7.67101      8.46177         0.178537     -0.271624     -0.426917
Pb       4.01187      7.78463     12.31871        -0.417533      0.164516      0.349255
Pb      15.48366      7.80040     12.52846         0.016433     -0.043958     -0.043241
Pb       3.80365     11.70044      4.01063        -0.010375     -0.297542      0.795870
Pb       3.95112     11.63295     16.61340        -0.475905      0.326651     -0.379848
Pb      15.56898     11.63801      4.10807        -0.229482      0.226182      0.326180
Pb      15.48973     11.72728     16.50983         0.514519      0.032366      0.157055
Pb       3.87134     11.82630      8.21200        -0.442675     -0.237895      0.198884
Pb       0.16357     11.65224      8.18537        -0.509644      0.278445      0.506183
Pb       4.03292     11.48856     12.25040        -0.318053      0.568462      0.530563
Pb       0.18968     11.68332     12.43920        -0.523240      0.273738     -0.036275
Pb       7.84987      3.72875      4.13545        -0.039263      0.112828      0.280040
Pb       8.01534      4.03658     16.60075        -1.512257     -0.186674      0.631420
Pb       7.85214     15.45987      4.12681        -0.643539      0.263113      0.420706
Pb       7.82473      0.13320     16.54532        -0.382901     -0.249205     -0.156717
Pb       7.57993      3.79777      8.45856         0.722746      0.386556     -0.373514
Pb       7.72528      0.07247      8.13813         0.287385     -0.634255      0.311066
Pb       7.80264      3.56582     12.58482        -0.008514      0.478379     -0.784856
Pb       7.69077     15.38321     12.40784         0.454501      0.723730      0.590041
Pb       7.95746      7.85949      4.24841        -0.859306     -0.417294     -0.249480
Pb       7.63956      7.77394      0.01903         0.132523     -0.179042     -0.247298
Pb       7.72044      7.79054      8.11924         0.223645     -0.160863      0.909979
Pb       7.77003      7.68350     12.38233        -0.199106      0.385932     -0.122148
Pb       7.87051     11.53895      4.16991        -0.176334      0.583921      0.247559
Pb       7.75409     11.90263     16.56828         0.074809     -0.308391     -0.552018
Pb       7.77692     11.67359      8.13462         0.361428      0.110529      0.525076
Pb       7.84791     11.61622     12.31780        -0.166724     -0.304374      0.678751
Pb      11.75129      3.63395      4.19497        -0.435626      0.534812     -0.422877
Pb      11.68015      4.09629      0.30260        -0.077339      0.212077     -0.125020
Pb      11.39369     15.37145      4.09064         1.420486      0.426856      0.538190
Pb      11.74177     15.57008     16.54442        -0.557642      0.260873      0.098680
Pb      11.67151      4.12857      8.40067         0.300059     -0.890572      0.509977
Pb      11.82488      0.28108      8.44432        -0.314533     -0.163449     -0.178716
Pb      11.81566      3.79941     12.52292        -0.547643     -0.237981     -0.335903
Pb      11.57461     15.55809     12.40225        -0.226863      0.520134      0.237863
Pb      11.56613      7.75921      4.21923         0.408147     -0.103952     -0.358729
Pb      11.70532      7.88338      0.04606         0.189391     -0.489289     -0.320254
Pb      11.63019      7.79256      8.39665        -0.107792     -0.055486     -0.296921
Pb      11.51399      8.02283     12.49437         0.642990     -0.687231      0.003729
Pb      11.85649     11.32334      4.13636        -0.174024      1.235657      0.547640
Pb      11.61838     11.62502      0.00327         0.267238      0.607348     -0.592895
Pb      11.82805     11.90386      8.38963        -0.193943     -0.327518     -0.201421
Pb      11.85961     11.80840     12.50528        -0.157623      0.253932     -0.325658
Ti       1.95735      1.97200      2.24318         0.134803     -0.978262     -0.400611
Ti       1.83351      1.89163     14.79088         0.836228      1.018865      0.140121
Ti       1.91690     13.62060      2.19196        -0.882031      0.781524     -0.002356
Ti       1.93223     13.63769     14.69266         0.053171     -0.915703      0.390596
Ti      13.64179      1.96402      2.16824        -0.427527     -0.269598      0.411546
Ti      13.54713      2.04374     14.79235        -0.295967     -0.825668     -1.025054
Ti      13.59089     13.64492      2.13849         0.565970     -0.538583      0.893455
Ti      13.60507     13.73302     14.67581         0.408395     -0.811489     -1.106641
Ti       1.82052      2.02206      6.39529         1.221005     -0.574343     -1.498245
Ti       1.85141     13.76090      6.26693         0.666691     -1.187655      0.044215
Ti      13.64865      1.95074      6.24571        -0.885476     -0.068427      0.370254
Ti      13.62257     13.68397      6.32633         0.332019     -1.200166     -0.209966
Ti       1.96884      1.97334     10.51219        -0.361795     -0.190726      0.087566
Ti       2.01015     13.69402     10.55015        -0.669779     -1.310468     -0.845881
Ti      13.76417      1.87274     10.68074        -0.313701      0.655080     -0.397313
Ti      13.64347     13.72922     10.51689         1.139002     -1.533203      0.976603
Ti       1.89014      5.81668      2.16625         0.246170      0.693943     -0.331108
Ti       1.91523      5.81118     14.75033        -0.174932      0.565130     -0.477667
Ti      13.67310      5.93658      2.27194        -0.931454     -0.402972     -0.599531
Ti      13.56690      5.83864     14.81821         0.456378      0.721069     -0.510041
Ti       1.94782      5.88779      6.44572        -0.601263     -0.263595     -0.445676
Ti      13.63588      5.83891      6.26428         0.625190      0.465200      0.540448
Ti       1.91091      5.88058     10.64383        -0.876904     -0.341838      0.330740
Ti      13.55910      5.76056     10.71892         0.791976      0.677049     -1.352836
Ti       1.90773      9.73021      2.16950        -0.910389      0.165035     -0.065311
Ti       1.92289      9.69790     14.76050        -0.336265      0.719940     -0.738475
Ti      13.59407      9.75044      2.07732         1.204273      0.024039      1.347624
Ti      13.64140      9.85162     14.55508         0.256570     -0.657478      1.132698
Ti       1.94916      9.66794      6.47295        -1.329766      1.066410     -0.494154
Ti      13.59417      9.77481      6.54809         0.592829     -0.295346     -1.050168
Ti       1.79295      9.71329     10.56163        -0.150833      0.561900     -0.407045
Ti      13.53220      9.70283     10.44395         0.990152      0.727299      1.141413
Ti       5.84210      1.93667      2.21722         0.271479      0.416264     -1.168450
Ti       5.78908      1.93469     14.63216        -0.348138      0.174400      0.267799
Ti       5.83081     13.62100      2.18498        -0.099188      0.296808     -0.158905
Ti       5.82435     13.65006     14.61597        -0.007899     -0.543791     -0.112084
Ti       5.71855      1.99449      6.39419         0.811991     -1.173282     -1.335256
Ti       5.86118     13.59756      6.38032         0.524242      0.764656     -1.353912
Ti       5.76425      1.92971     10.45808        -0.299424     -0.265097      1.099629
Ti       5.92698     13.57041     10.49757        -1.369799     -0.030938      0.070454
Ti       5.81749      5.81335      2.31465         0.855311      0.537415     -0.577183
Ti       5.91273      5.78232     14.55140        -0.234829      0.472830      1.963306
Ti       5.95733      5.77882      6.33913        -0.913654      1.597471      0.576155
Ti       5.81236      5.78436     10.44840         0.394839      0.005996     -0.348671
Ti       5.90585      9.72567      2.28878        -1.144960     -0.475402     -0.267932
Ti       5.88527      9.75372     14.69969        -0.179154     -0.446820     -1.157208
Ti       5.72651      9.74877      6.39229         0.745814     -0.886226     -1.268871
Ti       5.82214      9.63636     10.32456         0.796272      0.361501      1.202804
Ti       9.73849      1.94960      2.17876         0.032979     -0.224317      1.415977
Ti       9.65451      2.03798     14.67445         1.462736     -1.310517     -0.969668
Ti       9.71012     13.66591      2.09182         0.237935     -0.565167      0.155703
Ti       9.72975     13.69847     14.62833        -0.304071     -0.332001     -0.890417
Ti       9.74329      1.93207      6.45391         0.110693     -0.357676     -0.640779
Ti       9.83229     13.62114      6.39312        -0.696471     -0.307623      0.104663
Ti       9.65253      1.91097     10.51687         0.771604      0.219417     -0.295248
Ti       9.70525     13.61742     10.50139         0.366160      0.048407      0.197856
Ti       9.70001      5.80598      2.29255         0.584200      0.356449      0.078756
Ti       9.77452      5.88028     14.57391        -0.382913      0.459070      0.995389
Ti       9.81409      5.71321      6.41646        -0.308722      0.467811     -0.926464
Ti       9.70976      5.83737     10.54611        -0.279395     -0.907304     -0.765345
Ti       9.67586      9.75026      2.15995         0.494109     -0.257863      1.687751
Ti       9.71152      9.73396     14.63886        -0.509169      0.518256     -0.106605
Ti       9.73039      9.68979      6.46082         0.465939      0.620159     -0.074865
Ti       9.66634      9.68275     10.45589        -0.308146      0.290562     -0.281950
O       1.91983      1.89690      0.44937         0.051749      0.077054      0.563053
O       1.84119      1.84288     13.04511         0.214911      0.364694     -1.248280
O       2.06290     13.68878      0.41556        -0.074799     -0.382652     -0.122486
O       1.79355     13.63012     12.91023         0.469248      0.365477     -0.215145
O      13.55312      1.72208      0.36270         0.300906      1.009982      0.694714
O      13.85606      2.06452     13.00154        -1.009844     -0.148227      0.132742
O      13.50109     13.57395      0.36036         0.100443      0.248705     -0.515115
O      13.64848     13.63388     12.85364        -0.534473      0.255764      0.741168
O       1.92088      2.04640      4.53383        -0.317322     -0.041449      0.957423
O       1.73651     13.65521      4.53390         0.425123      0.052948     -0.258336
O      13.66073      1.80880      4.45583        -0.202155      0.735459      0.787014
O      13.66124     13.47392      4.58032         0.059968      0.553462     -0.500481
O       1.96523      2.04743      8.70973        -0.136225     -0.196617      0.151215
O       1.88241     13.73037      8.75239         0.632442     -0.097869     -0.016895
O      13.67869      1.94141      8.88734         0.081205     -0.215140     -0.420237
O      13.49315     13.79877      8.77650         0.044702      0.080766     -1.166551
O       1.95876      5.89797      0.40276        -0.460596     -0.211736      0.355741
O       1.92098      5.84796     12.91504         0.267248     -0.385143      0.891938
O      13.62641      5.96104      0.42110         0.045913     -0.578194     -0.212356
O      13.62876      5.77497     12.99507        -0.491366     -0.082820      0.164355
O       1.98949      5.81919      4.66211        -0.339132      0.040663     -0.866838
O      13.60559      5.83119      4.48806        -0.131714      0.241240     -0.073314
O       1.68452      5.78102      8.88685         0.659344      0.218605     -0.655503
O      13.71647      5.77733      8.86248        -0.262887     -0.107254      0.581757
O       1.66729      9.84935      0.41180         0.598506     -0.176362      0.052025
O       1.91531      9.79765     12.95336         0.158108     -0.301568     -0.302261
O      13.55955      9.90727      0.33781         0.001065     -0.240812     -0.746634
O      13.59255      9.73826     12.80222        -0.349351      0.199558     -0.543134
O       2.04919      9.67003      4.72070        -0.238204     -0.190357     -0.943414
O      13.51785      9.76115      4.73616        -0.584603      0.223468     -0.445517
O       1.67957      9.58059      8.78129         0.633412      0.147549     -0.002219
O      13.75598      9.65757      8.68189        -0.483100      0.069295      0.017892
O       5.97469      2.03901      0.39190        -0.362835     -0.442346      0.908290
O       5.76763      1.96459     12.82651         0.310375      0.480292      0.526111
O       5.77605     13.59630      0.39561        -0.040869     -0.215795     -0.259540
O       5.91469     13.51583     12.83257        -0.385441      0.478953     -0.082308
O       5.77406      1.86325      4.61537         0.110343      0.554416      0.220214
O       6.12231     13.76326      4.63050        -0.916510     -0.743172     -0.396809
O       5.53572      1.99836      8.68543         0.872488     -0.138235     -0.332363
O       5.78656     13.54870      8.73692        -0.055130      0.355021     -0.709897
O       5.92329      5.84790      0.50031         0.141949     -0.055510      0.426352
O       5.76170      5.79847     12.83383        -0.136191      0.183290     -1.413569
O       5.76333      5.87874      4.58006        -0.036632     -0.318181     -0.045389
O       5.85321      5.85332      8.66626        -0.236222     -0.282093     -0.259469
O       5.82089      9.58342      0.50080         0.287827      0.461991     -0.760972
O       5.89948      9.63660     12.89082        -0.511533     -0.173779      0.323760
O       5.89940      9.69493      4.56051        -0.702832      0.142315     -0.047312
O       5.91779      9.80334      8.61216        -0.147957     -0.520013     -1.678430
O       9.68431      1.97654      0.45063        -0.233723     -0.222554     -1.930214
O       9.63283      2.03385     12.84055        -0.033575      0.157063      0.406553
O       9.80575     13.80102      0.31969        -0.840069     -0.614201      0.194750
O       9.66726     13.60960     12.79431         0.080802      0.000247      0.898673
O       9.84686      1.99009      4.60300        -0.175131     -0.105497      0.932915
O       9.57113     13.66517      4.58376         0.428561      0.122050      0.145830
O       9.81130      1.87592      8.70590        -0.332073     -0.200545      0.456337
O       9.79781     13.56825      8.75000         0.017733      0.228455     -0.777922
O       9.65754      5.75103      0.45131        -0.223879      0.289902      0.285227
O       9.71073      5.80380     12.83753         0.247171     -0.178663     -0.922838
O       9.94730      5.75663      4.52778        -0.167069      0.041435      1.733192
O       9.88120      5.84713      8.71661        -0.319588     -0.171747      0.478164
O       9.71641      9.63365      0.46874         0.070079      0.388919     -2.239611
O       9.65037      9.77212     12.86368         0.376708     -0.518128     -0.339196
O       9.74751      9.65092      4.60824         0.405883      0.195196     -0.105828
O       9.65752      9.56225      8.68810        -0.135795      0.343131     -0.179665
O       3.91881      2.09620      2.60060        -0.569206     -0.535010     -0.432967
O       3.87681      2.00828     14.89698         0.467380     -0.156784      0.411456
O       3.87479     13.56893      2.68798         0.566829      0.225479     -0.597388
O       3.87438     13.65814     14.99296         0.183443      0.322343     -0.340510
O      15.55810      1.94043      2.57167         0.209804     -0.314170     -0.374163
O      15.55820      1.91408     15.07048        -0.684965      0.452743      0.486865
O      15.56509     13.55913      2.40087        -0.205872      0.215874     -0.079787
O      15.59100     13.74278     15.02395        -0.525069      0.114973      0.002857
O       3.83973      1.93102      6.62950        -0.628867      0.477811      0.082622
O       3.81211     13.61666      6.50695         1.170795      0.139929      0.503696
O      15.57710      1.98668      6.59675        -0.859972     -0.512524      0.213850
O       0.05594     13.60214      6.68371        -1.425652      0.439833      0.370801
O       3.85426      1.92416     10.92149        -0.408706     -0.027590      0.113046
O       3.89377     13.61730     10.88312         0.755179      0.013298     -0.033265
O       0.09216      1.89592     10.85259        -1.016810     -0.328595     -0.091816
O      15.58384     13.55851     10.73840        -0.369472      0.413794      0.316729
O       3.88733      5.96009      2.44930        -0.393211     -0.661073      0.446411
O       3.87257      5.86836     15.06659        -0.019279      0.009027     -0.666819
O      15.55518      5.90708      2.49814         0.931688     -0.155875      0.190998
O      15.53873      5.69910     14.97042         0.106882      0.300221      0.425332
O       3.84653      5.84342      6.70713         0.023524     -0.057147      0.337594
O      15.57911      5.98294      6.70094        -0.727369     -0.526470     -0.323601
O       3.82337      5.92289     10.77391        -0.347910     -0.433132      0.155213
O      15.52332      5.79055     10.99560         0.155914      0.127215      0.214632
O       3.79773      9.70403      2.35316         0.870954      0.112231      0.646987
O       3.82210      9.76720     15.10624         0.384902     -0.594151     -0.082264
O      15.53787      9.75136      2.72025        -0.013403     -0.479942     -0.720359
O      15.53184      9.89996     14.96923        -0.027637     -0.628076     -0.237803
O       3.84782      9.71108      6.70653         0.748770     -0.238054      0.576979
O      15.51059      9.74874      6.51974         0.809012      0.044871      0.741188
O       3.95955      9.80710     10.65261        -1.246122     -1.100490      0.293537
O      15.49142      9.87451     10.89467         0.731915     -0.631660     -0.153462
O       7.83619      1.87273      2.61786        -0.490933      0.473704     -0.346130
O       7.79953      1.92863     14.89490        -0.765306      0.377729      0.195759
O       7.68595     13.74228      2.34126         1.356948     -0.048505      0.167532
O       7.72555     13.66049     14.87758         0.032142     -0.160549      0.936176
O       7.71836      1.94528      6.72341         0.203622      0.369397      0.138490
O       7.76354     13.65871      6.72196         0.049908     -0.140593      0.457881
O       7.66985      1.91339     10.74704         0.293784      0.513394     -0.150653
O       7.78226     13.56680     10.78342        -0.453274      0.064698      0.004913
O       7.86713      5.72643      2.83804        -0.189793      0.365738     -1.064445
O       7.76886      5.94074     14.84224         0.360411     -0.635279      0.286858
O       7.82495      5.78338      6.76145         0.159083     -0.213032     -0.736867
O       7.72618      5.93751     10.68142         0.537311     -0.381034      0.367581
O       7.73015      9.66434      2.54346         1.965629      0.190753      0.081634
O       7.74932      9.72854     14.93549         0.352500      0.096538      0.688493
O       7.81736      9.80639      6.49024        -0.357208     -0.440339      0.787576
O       7.76846      9.46145     10.69245         0.151248      0.488310      0.457917
O      11.67247      1.90218      2.46965         0.652441      0.027729      0.067210
O      11.60135      1.88531     14.88285         0.363583      0.274873      0.127119
O      11.62431     13.61304      2.41490        -0.298782      0.024645      0.236524
O      11.61487     13.55751     15.00299         0.904594      0.484712     -0.517879
O      11.74317      1.87126      6.62436         0.222863      0.264117      0.083716
O      11.73117     13.59895      6.53538        -1.022483      0.316718      0.350796
O      11.64622      1.83093     10.86729         0.013768     -0.039513      0.269404
O      11.55487     13.74810     10.92039         1.133080     -0.376887     -0.267199
O      11.66341      5.81099      2.29130         0.321906     -0.023160      0.628040
O      11.64653      5.99323     15.08116        -0.032779     -0.701355     -0.100827
O      11.72460      5.77441      6.76879        -0.119959      0.132159     -0.517329
O      11.66502      5.68689     10.78981        -0.036287      0.107252      0.513239
O      11.71753      9.69123      2.50812        -0.896402      0.295254     -0.311169
O      11.68037      9.80830     14.85803        -0.698651      0.060628      0.431110
O      11.57308      9.80351      6.87636         0.955500     -0.056414     -0.314297
O      11.65491      9.51206     10.65501        -0.094223      0.866457      0.282091
O       1.82452      3.86914      2.42842         0.171669      1.146560      0.293254
O       1.91092      3.88459     15.16713         0.043339      0.501023     -0.602353
O       1.96321     15.52368      2.51068         0.132570      1.189449      0.123859
O       1.95436      0.07690     15.05013        -0.005587     -1.780993      0.050387
O      13.69651      3.88343      2.44831        -0.513921     -0.742798     -0.305332
O      13.46003      3.90928     15.19257         0.338910     -0.030012     -0.239258
O      13.63179     15.50364      2.50427         0.026336      0.504263     -0.117380
O      13.57103      0.03450     15.03544         0.034723     -0.807778     -0.461419
O       1.74495      3.90303      6.66547         0.677880      0.235689      0.282077
O       1.92273      0.04061      6.70473        -0.338882      0.188667     -0.373332
O      13.62030      3.90803      6.63294         0.383940     -0.538443     -0.333471
O      13.67738     15.55466      6.60849         0.397611      1.275792      0.195485
O       1.80204      3.82864     10.98180         1.033295      0.469297     -0.253853
O       1.89647     15.49774     10.91260         0.518017      1.860260     -0.080958
O      13.60590      3.80514     10.97267         0.238865      0.421866      0.001895
O      13.65575     15.58853     10.83737        -0.078950      0.511068      0.562278
O       1.85417      7.82183      2.52929         0.118055     -0.526423      0.137220
O       1.74157      7.78467     15.04885         0.437902     -0.190786     -0.230507
O      13.57575      7.81762      2.31620         0.173951      0.189277      0.640224
O      13.63851      7.88042     15.04044         0.119983     -0.523591     -0.194614
O       1.95840      7.76791      6.71560        -0.077341     -0.066117      0.315907
O      13.55501      7.81560      6.63613        -0.239991     -0.890376      0.412443
O       1.75973      7.80505     10.98964         0.602484      0.016834     -0.430448
O      13.63252      7.78070     10.88468         0.157683     -0.266824     -0.089871
O       1.88851     11.68711      2.64565         0.382446     -0.577786     -0.464585
O       1.89092     11.71854     14.89609         0.112184      0.583510      0.693417
O      13.63507     11.64968      2.44743        -0.425364      0.015875      0.308393
O      13.67217     11.76950     14.84024        -0.514281     -0.096555      0.284459
O       2.00114     11.67042      6.71931        -0.285827     -0.049528      0.062492
O      13.64119     11.77703      6.80505        -0.143443     -0.646061      0.218072
O       2.02669     11.66177     10.73847        -0.442037     -0.380509      0.483986
O      13.51987     11.75920     10.69444        -0.832877     -0.837083      0.223752
O       5.86975      3.90222      2.67756         0.003030     -0.049415     -0.144178
O       5.81357      3.88709     15.01077         0.361030      0.500865     -0.765101
O       5.77172      0.04301      2.39079        -0.326301     -0.503290      0.357461
O       5.86609      0.00906     14.84901        -0.401916     -0.147916      0.297689
O       5.75224      3.95229      6.63358         0.082210     -1.099954      0.181320
O       5.83655     15.60101      6.60780        -0.406350     -0.209256      0.777345
O       5.76213      3.89644     10.66131        -0.086804     -0.394870      0.432148
O       5.85184      0.01091     10.92372        -0.494611     -0.880555     -0.667668
O       6.00235      7.73500      2.57298        -0.560484      0.199302      0.117625
O       5.87870      7.73347     15.07353        -0.673752      0.293516     -0.365058
O       5.90200      7.80266      6.60022        -0.415330     -0.305857      0.317047
O       5.72237      7.72879     10.66666        -0.057714      0.354217      0.513552
O       5.93055     11.64673      2.46041        -0.430599      0.446898      0.229739
O       5.76650     11.64710     14.79606         0.114917      0.376760      1.276978
O       5.83051     11.61285      6.59918        -0.193821      1.468011      0.192092
O       5.92732     11.57460     10.67754         0.009188      0.898013      0.561660
O       9.83632      3.83204      2.48924        -0.426364      0.229350      0.131514
O       9.62422      3.93392     15.00974         0.727350      0.113673     -0.616598
O       9.73842     15.57985      2.58173        -0.369770     -0.291536     -0.766676
O       9.64101     15.60132     14.85369         0.215056      0.364672      0.409214
O       9.70597      3.80787      6.82259         0.322636      0.923173     -0.378484
O       9.70016     15.60683      6.72793         0.048537     -0.279834     -0.243420
O       9.63375      3.81348     10.72640        -0.147694      0.464591      0.282132
O       9.51681     15.55653     10.92693         0.763560      0.299544     -0.597743
O       9.79480      7.81688      2.53428        -0.486215     -0.450702      0.170475
O       9.70397      7.79195     14.81983         0.174110      0.487180      0.351318
O       9.81236      7.69027      6.71259        -0.290038      0.200760     -0.611648
O       9.78328      7.70829     10.83040        -0.020547      0.130947      0.466017
O       9.59458     11.71073      2.38941         0.095855     -0.264410     -0.148400
O       9.62606     11.76205     14.85067         0.059228     -1.085291      1.045455
O       9.70607     11.71462      6.66292         0.006012     -0.019694     -0.032443
O       9.66265     11.56485     10.80008         0.309541      0.390779     -0.348799
