  # total energy = -7881.96726502 
CRSYTAL
PRIMVEC
    15.6080000000000005    0.0000000000000000    0.0000000000000000
     0.0000000000000000   15.6080000000000005    0.0000000000000000
     0.0000000000000000    0.0000000000000000   16.6239999999999988
PRESSURE
-1.08965 -0.907583 -0.392359 -0.155632 0.144418 -0.067737
PRIMCOORD
320 1
Pb       4.00680      3.86833      4.20387        -0.291406      0.671196     -0.327506
Pb       3.90049      3.89955      0.00281        -0.132826     -0.190013     -0.574646
Pb       3.93310      0.03804      4.11711        -0.046435     -0.112749     -0.136163
Pb       3.83410     15.55195     16.53554         0.135800      0.307003     -0.199603
Pb      15.51932      3.85698      4.09290         0.468623      0.079111      0.697813
Pb      15.57608      3.80972     16.59968         0.298545     -0.044397     -0.394540
Pb      15.60264     15.57336      4.07785        -0.397416      0.456828      0.367009
Pb       0.03393      0.01245     16.62052        -0.019890      0.079349     -0.214889
Pb       3.86391      3.86727      8.26900         0.292751      0.174045      0.629514
Pb       3.98404      0.10421      8.30157        -0.407105     -0.367439     -0.025351
Pb      15.53481      3.93846      8.23579         0.539902     -0.308901      0.450311
Pb       0.04926     15.58643      8.26007         0.167588      0.330040      0.029474
Pb       3.70194      3.99357     12.61991         0.584149     -0.353438     -0.411059
Pb       3.80937     15.46982     12.50746         0.476977      0.188906     -0.505574
Pb      15.56524      3.89247     12.49122         0.526931     -0.500002     -0.660641
Pb       0.10476     15.59244     12.46784        -0.366240     -0.299818     -0.346280
Pb       3.74120      7.86534      4.01405         0.582736     -0.259210      0.701348
Pb       3.83336      7.66632     16.57819         0.494749      0.621154     -0.379161
Pb       0.02635      7.88571      4.03484        -0.050040     -0.340487      0.519799
Pb      15.55278      7.76855     16.60569        -0.010292      0.087892     -0.232861
Pb       3.93131      7.78134      8.33663        -0.042781     -0.068088     -0.401271
Pb      15.41400      7.76180      8.50329         0.635146     -0.008001     -0.992321
Pb       3.89019      7.85653     12.50505         0.202969     -0.481528     -0.314377
Pb      15.43518      7.72252     12.48407         0.465265      0.392132      0.293815
Pb       3.89081     11.71332      4.10537        -0.144775     -0.412889      0.318475
Pb       3.88530     11.67494     16.54039         0.131789     -0.417911     -0.226118
Pb      15.58197     11.80117      4.11102        -0.083815     -0.669219      0.087727
Pb      15.60549     11.80857      0.05255         0.204726     -0.310015      0.193270
Pb       3.84683     11.84931      8.32662         0.499857     -0.870916     -0.644020
Pb      15.50617     11.67349      8.15251         0.281050     -0.122525      0.510274
Pb       3.84204     11.75035     12.37403         0.326851     -0.078810     -0.060114
Pb       0.01490     11.54308     12.41682        -0.298353      0.509047     -0.640585
Pb       7.74158      3.72410      4.12705        -0.016052      0.720387      0.006243
Pb       7.68895      3.82240     16.55950         0.521759     -0.263999     -0.111581
Pb       7.74157     15.50669      4.13217         0.253016      0.356002     -0.669055
Pb       7.78928      0.01187     16.62375         0.256626     -0.042253     -0.323983
Pb       7.73782      3.83708      8.49278        -0.254227      0.214889     -0.491254
Pb       7.86888     15.55507      8.39037        -0.286845      0.224320     -0.280134
Pb       7.78995      3.77134     12.49988        -0.221569      0.207172     -0.045283
Pb       7.88087      0.01903     12.52490        -0.538996      0.064606     -0.372767
Pb       7.79427      7.80319      4.03446        -0.170309     -0.195100      0.523636
Pb       7.73973      7.83456     16.53958         0.253371     -0.329995     -0.092914
Pb       7.94832      7.86330      8.27124        -0.906229     -0.285468      0.180815
Pb       7.93976      7.63807     12.44775        -0.765223      0.454186      0.342652
Pb       7.81879     11.76274      4.03907        -0.100814     -0.533919      0.566175
Pb       7.77072     11.67873     16.50196        -0.109188      0.242352      0.662792
Pb       7.69720     11.69983      8.28416        -0.571306     -0.274230     -0.564971
Pb       7.81764     11.58122     12.46349        -0.690446     -0.072594     -0.683420
Pb      11.76603      3.90451      4.29660        -0.345358     -0.246574     -0.211650
Pb      11.75142      4.04913      0.15134        -0.311649     -0.533972     -0.490153
Pb      11.55160      0.05721      4.18474         0.042592      0.210818     -0.058468
Pb      11.64583     15.59110     16.54151        -0.157451     -0.458050      0.199649
Pb      11.63942      4.05544      8.38853         0.036242     -0.564986     -0.523590
Pb      11.51416     15.59202      8.28718         0.309750      0.322279      0.036150
Pb      11.77789      3.76167     12.45576        -0.569981     -0.009734      0.205826
Pb      11.63170     15.48555     12.38256         0.227877      0.178767     -0.098057
Pb      11.73583      7.61997      3.98149        -0.497897      0.736271      0.399599
Pb      11.67258      7.79982      0.02008        -0.225035     -0.108632     -0.523128
Pb      11.65599      7.83000      8.19712        -0.232082     -0.003646     -0.100948
Pb      11.51641      7.89374     12.50516         0.559969     -0.392757      0.475939
Pb      11.74627     11.55888      4.30247        -0.071028      0.116505     -0.749379
Pb      11.88774     11.70743     16.58521        -0.523619      0.274846      0.246886
Pb      11.75677     11.81037      8.38863         0.293937      0.106432     -0.264165
Pb      11.65109     11.70251     12.36229         0.707048      0.189935     -0.169048
Ti       1.92329      1.98535      2.12129        -0.173188      0.288558     -0.621666
Ti       1.94921      1.92548     14.54116         0.265494      0.310598      1.548889
Ti       1.92577     13.81558      2.18440        -0.596477     -1.695997      0.224247
Ti       1.85247     13.60086     14.67024         0.817716      0.216729     -1.193147
Ti      13.56228      1.93211      2.17230         0.150725     -0.367655      0.911986
Ti      13.68699      1.76736     14.62967        -0.009643      1.304950     -0.449314
Ti      13.58765     13.71883      2.27085         0.246542     -0.742227     -0.389271
Ti      13.69745     13.57887     14.66822        -0.403805     -0.284096     -1.363802
Ti       1.99374      1.89831      6.30679        -0.773435     -0.144390      0.271239
Ti       1.94418     13.58306      6.33343         0.651369      0.632395      0.149704
Ti      13.61142      1.89732      6.47701         0.024408      0.227175     -0.335338
Ti      13.61397     13.67631      6.43475        -0.168538     -0.372299     -0.444007
Ti       1.96242      1.89444     10.52030         0.030410      0.628934      0.823176
Ti       1.96230     13.60734     10.40364        -0.740762     -0.350519      1.741553
Ti      13.67782      1.95465     10.52163         0.219391     -0.844514      1.280096
Ti      13.69856     13.70537     10.48264         0.203973     -1.150433     -0.422762
Ti       1.98962      5.78080      2.20842         0.057734      0.074903      0.651024
Ti       1.94580      5.83266     14.68480        -0.139756      0.102670     -0.685881
Ti      13.67248      5.75450      2.25195         0.067081      0.805769      1.509320
Ti      13.66061      5.64675     14.61812        -0.153404      1.740760      0.866259
Ti       1.95682      5.74082      6.46143        -0.612650      0.532649     -1.431494
Ti      13.58631      5.87564      6.45407         1.072956     -0.583652     -1.161564
Ti       1.95596      5.76552     10.49204         0.266370     -0.268760      0.248948
Ti      13.62760      5.84941     10.61446        -0.390367     -0.284384     -0.034552
Ti       1.95412      9.79975      2.07693        -0.500944     -0.031608      0.630930
Ti       1.89757      9.71709     14.64753         0.027113     -0.121185      0.579255
Ti      13.63746      9.76619      2.13756        -0.042413     -0.185223      1.658255
Ti      13.63754      9.68549     14.72956         0.673926     -0.296696     -0.556656
Ti       1.97880      9.64454      6.45673         0.082455      0.304298     -0.910424
Ti      13.67761      9.72196      6.25211         0.595649      0.079521      0.795113
Ti       1.98843      9.62354     10.48713        -0.267808      0.480585     -0.337826
Ti      13.65893      9.66180     10.45365         0.068142      1.738218      0.573205
Ti       5.80901      1.95528      2.05101         0.282634     -0.145323      1.224017
Ti       5.79439      1.83763     14.62547         0.775290      0.543870      1.273320
Ti       5.82101     13.60865      2.16361         0.371824      1.006743      0.552957
Ti       5.81249     13.63897     14.68370         0.253945     -0.082772     -0.951176
Ti       5.85622      1.95312      6.38627         0.380919      1.066823      1.032690
Ti       5.82211     13.72082      6.23955        -0.064885     -1.836336      1.293551
Ti       5.76847      1.91197     10.62565         0.254018      0.101934      1.236107
Ti       5.90879     13.68292     10.48814        -0.427943     -0.023948      0.791346
Ti       5.84376      5.91802      2.08054         0.206127     -0.174506      1.834543
Ti       5.92617      5.74937     14.72091        -0.554175      0.948799     -1.229090
Ti       5.80733      5.82693      6.37177         1.155052      0.017804     -1.023209
Ti       5.77431      5.83517     10.62268         0.540998     -0.625523     -0.313983
Ti       5.85653      9.80497      2.11972        -0.441203     -0.882465      0.771432
Ti       5.83596      9.73030     14.56514        -0.171640     -0.411581     -0.217420
Ti       5.85614      9.65256      6.28244         0.053555      1.285731      0.774957
Ti       5.78285      9.68236     10.45929         1.198268      0.641025      1.790915
Ti       9.69751      1.92608      2.17047         0.281636     -0.177017      0.370662
Ti       9.89818      1.91585     14.72785        -1.603268     -0.100454     -0.577103
Ti       9.85445     13.61493      2.25151        -0.470041      0.089920     -0.879394
Ti       9.73902     13.59468     14.63730         0.333896      1.101900     -0.032636
Ti       9.65714      2.00018      6.38070         0.113050      0.129195      0.059582
Ti       9.70137     13.65429      6.31385        -0.220472      0.248756      0.231311
Ti       9.77428      1.95445     10.57067        -0.267267     -0.576158     -0.517528
Ti       9.67061     13.63845     10.46546         0.289812      0.059191      0.527186
Ti       9.67118      5.73916      2.18241        -0.399799      0.428297     -0.036923
Ti       9.80142      5.70661     14.74730        -0.494200      1.319922     -0.597243
Ti       9.62360      5.87392      6.35239        -0.262095     -0.192501     -0.435349
Ti       9.78834      5.81381     10.54092        -1.048326      0.085665      0.556947
Ti       9.71046      9.69986      2.19966         0.544460      0.240612      0.542999
Ti       9.71751      9.82749     14.72104         0.357186     -1.954413     -0.423646
Ti       9.81594      9.81202      6.38331        -1.372822     -0.994616     -1.312570
Ti       9.77024      9.70746     10.49654        -0.994790      0.211664     -0.309781
O       1.83965      1.97423      0.27811         0.318977     -0.213160      1.145158
O       1.92333      1.96755     12.81749        -0.159752     -0.085798     -1.205557
O       1.68240     13.74324      0.41312         0.675461      0.225762     -0.501395
O       1.88378     13.56500     12.84393         0.076570      0.146357      1.221467
O      13.66780      1.90722      0.41489        -0.114096      0.272333     -0.349562
O      13.67912      1.77827     12.82971        -0.231135      0.513545      0.662730
O      13.74113     13.63760      0.46756        -0.322488      0.313636      0.037760
O      13.74630     13.55496     12.86436        -0.143114      0.073947      0.596626
O       2.05336      1.89261      4.51168        -0.086538     -0.121405     -0.011463
O       2.06356     13.73567      4.51636        -0.350709     -0.421162     -0.160680
O      13.58167      1.88500      4.68457         0.018417      0.131772      0.559105
O      13.55850     13.60826      4.61780         0.031517      0.443493      0.518710
O       2.08605      1.83247      8.77060        -0.393135     -0.004817     -0.522994
O       1.85667     13.65696      8.67447         0.241517     -0.020232     -0.696841
O      13.81058      2.07012      8.83065        -0.472115     -0.441711     -2.118670
O      13.67736     13.45369      8.61832         0.045066      0.355336      0.905813
O       2.00773      5.86402      0.43446        -0.000873     -0.369284     -0.460185
O       1.92046      5.91835     12.87208         0.020532     -0.343379      0.990963
O      13.58894      5.60341      0.53541         0.099417      0.142035     -1.390912
O      13.64006      5.75522     12.84507         0.353335      0.127099      0.027331
O       1.96648      5.68266      4.63834        -0.018186      0.091317      0.310878
O      13.65616      5.71740      4.65188        -0.346848     -0.021245     -0.024499
O       2.01635      5.60441      8.71722        -0.016045      0.438468     -0.200913
O      13.59582      5.96111      8.82498        -0.058621     -0.327537     -0.248626
O       2.00949      9.77285      0.31874         0.044356     -0.386070      0.009608
O       1.95320      9.81633     12.86003         0.005159     -0.638938      0.025556
O      13.58489      9.63727      0.38413        -0.000477      0.403751     -0.330635
O      13.76011      9.64740     12.91511        -0.248827      0.130899      0.591492
O       1.95571      9.68119      4.61055        -0.100282     -0.102226      0.590365
O      13.76682      9.81809      4.51559        -0.210802     -0.270657     -0.621048
O       2.00695      9.70687      8.71935         0.108100     -0.225920     -0.153998
O      13.83422      9.77748      8.67405        -0.998207     -0.738624      0.256173
O       5.87463      1.95724      0.29870         0.016230     -0.294736      0.214427
O       5.87649      1.80389     12.90973         0.375653      0.267572     -1.269772
O       5.96014     13.60561      0.41319        -0.654092     -0.052090     -0.532646
O       5.69190     13.69978     12.89589         0.421820      0.016256      1.054097
O       5.84485      2.08675      4.63258        -0.053679     -0.425615     -0.826507
O       5.73136     13.56833      4.46241        -0.324165      0.620436      0.201030
O       5.76689      1.91851      8.87658         0.119497     -0.124351     -1.368340
O       5.96471     13.74068      8.70375        -0.161759     -0.003596      0.112589
O       5.82529      5.76806      0.33624        -0.187868      0.148930     -1.024611
O       5.81124      5.78008     12.91050         0.373966      0.083944      0.423963
O       5.94796      5.75030      4.56057        -0.438285     -0.050550      0.666696
O       5.79923      5.81432      8.84205        -0.289701      0.151395     -0.037800
O       5.81273      9.88560      0.37784        -0.095508      0.067288     -0.299724
O       5.99879      9.86804     12.75457        -0.694285     -0.617241      1.743614
O       5.94404      9.71684      4.51415        -0.384526      0.205542     -0.235272
O       5.70237      9.79708      8.72539         0.233305     -0.277535     -0.360258
O       9.74542      1.86749      0.39830         0.279404      0.050133     -0.606137
O       9.94624      1.87018     12.91604        -0.324104     -0.266163     -0.253229
O       9.92324     13.63434      0.41202        -0.386233     -0.171327      0.741781
O       9.89190     13.69230     12.83637        -0.507480     -0.287939      0.660657
O       9.64059      1.93599      4.59019        -0.060719     -0.147495      0.171807
O       9.80417     13.62939      4.50964        -0.268877      0.342863      0.640460
O       9.64879      2.04748      8.77257         0.565104     -0.139323      0.213865
O       9.53554     13.59887      8.67033         0.481508      0.169470      0.322025
O       9.78137      5.77639      0.37369         0.067964     -0.406654      0.234513
O       9.65059      5.95171     12.95549         0.589799     -0.379718      0.031243
O       9.59272      5.92698      4.56788         0.257092     -0.266679     -0.064313
O       9.78263      5.82533      8.75452         0.299611     -0.067324      0.157113
O       9.71987      9.85058      0.43865         0.465897     -0.201417     -0.510620
O       9.69059      9.59529     12.87963         0.314410      0.796971      1.191216
O       9.58000      9.53515      4.59262         0.370600      1.034520      0.769304
O       9.81657      9.62117      8.67676         0.101621      0.538170      0.803166
O       3.90180      2.01996      2.34168        -0.032858     -0.778559      0.169587
O       3.92851      1.90886     14.81549        -0.321837     -0.135614      0.703952
O       3.74572     13.81051      2.35273         1.009765     -0.647244      0.010735
O       3.87442     13.71542     15.03840        -0.173723     -0.180074      0.186483
O      15.53753      1.98219      2.47096         0.184382      0.007814      0.092439
O       0.04177      1.98811     14.83230        -1.173917      0.006366      0.436522
O      15.46621     13.53521      2.61789         1.158605      1.342534      0.049463
O       0.01991     13.74012     15.05445        -0.217678     -0.216564     -0.380196
O       3.86643      2.07748      6.71638         0.847049     -0.616201     -0.407874
O       3.89441     13.53643      6.70325         0.363460      0.435794     -0.283415
O       0.01560      1.75444      6.61721        -0.204625      0.433716      0.194341
O       0.04391     13.54288      6.50391        -0.941657      0.703443      0.232398
O       3.87570      1.92482     10.90969        -0.031594      0.015858      0.054973
O       3.89807     13.70001     10.74569        -0.449058     -0.432212     -0.142742
O       0.02919      2.00756     10.82247        -0.236654     -0.405616      0.354734
O      15.56996     13.50352     10.82560         0.232788      0.525666     -0.303546
O       3.92371      5.83844      2.56110        -0.423858     -0.382352     -0.419967
O       3.96027      5.87147     14.93635        -1.333209     -0.102724      0.385928
O      15.56093      5.67065      2.58491         0.322059      0.245664     -0.607612
O      15.59131      5.85036     15.09388        -0.113341     -0.869233     -0.384928
O       3.96142      5.64643      6.65929        -0.920013      0.409551      0.083989
O      15.58859      5.81458      6.80861        -0.047283      0.078837     -0.073092
O       3.86581      5.60126     10.96932         0.610878      0.898008     -0.494552
O       0.01561      5.96908     10.85358        -0.604859     -0.716958     -0.305562
O       3.88046      9.67976      2.49594        -0.747108      0.588198     -0.192238
O       3.95101      9.67331     14.97452        -0.789905      0.299754     -0.378828
O      15.54560      9.54806      2.43794         0.726309      0.709736     -0.409769
O       0.05588      9.73290     15.00060        -0.499799     -0.072246      0.099157
O       3.90793      9.82254      6.62891        -0.294879     -0.338434      0.038237
O      15.57042      9.73514      6.63380         0.571157     -0.304299      0.102835
O       3.92773      9.86025     10.87130        -0.364356     -0.466513      0.052536
O       0.06542      9.50277     10.69325        -0.244852      0.273502      0.614420
O       7.85418      1.74379      2.51722        -1.898601      0.519408     -0.129630
O       7.90807      1.86787     14.96473        -0.433262     -0.037765      0.130748
O       7.71984     13.69336      2.55488         0.623420     -0.481079     -0.133240
O       7.80188     13.69143     15.00803         0.498563     -0.294625     -0.496895
O       7.75540      2.03638      6.87915        -0.439311     -0.884812     -0.637306
O       7.71507     13.78064      6.57035         0.753284     -0.150673     -0.258760
O       7.85489      1.81138     10.84066        -0.146915      0.068599      0.632626
O       7.79090     13.77489     10.86718         0.706312     -0.180930      0.060725
O       7.70062      5.96045      2.46110         1.026708     -0.528591     -0.455011
O       7.79810      5.93554     14.96626         0.432600     -0.556039      0.429363
O       7.80940      5.99536      6.77367        -0.326346     -0.586979     -0.083702
O       7.82483      6.02594     10.81314         0.316978     -0.890314     -0.006626
O       7.75123      9.81958      2.38883         0.411004     -0.098078      0.185122
O       7.74281      9.74866     15.11083         1.123568      0.040580     -0.763069
O       7.74961      9.67882      6.79856         0.566920      0.698340     -0.232996
O       7.80347      9.73085     10.79742         0.807636     -0.083554     -0.471669
O      11.57812      1.95817      2.62485         1.237156     -0.031430     -0.280817
O      11.73429      1.96608     15.05896         0.973506     -0.217802     -0.022707
O      11.70601     13.63587      2.54302        -0.048453     -0.066227      0.028752
O      11.82377     13.48937     14.92197        -0.710182      0.266584      0.273071
O      11.61159      1.90947      6.67949         0.742647      0.160788      0.360453
O      11.65195     13.66003      6.83125        -0.014211      0.185365     -0.482124
O      11.72411      1.79200     10.81323        -0.165265      0.847150     -0.035727
O      11.72626     13.50517     10.76831        -0.259391      0.385750     -0.261427
O      11.60433      5.71654      2.56060         0.543664     -0.194700     -0.109632
O      11.72948      5.71215     14.99464         0.279746      0.239418      0.225114
O      11.67287      5.80572      6.70305        -0.346223      0.143532      0.148647
O      11.66804      5.84211     10.91369         0.265106     -0.417744     -0.146239
O      11.67028      9.74541      2.73079         0.249826     -0.311891     -0.938216
O      11.74802      9.83741     15.02147        -0.679102     -0.136818     -0.292185
O      11.70898      9.72379      6.49206        -0.034674      0.047296      0.404793
O      11.71047      9.70842     10.77558        -0.107703     -0.091909      0.091236
O       1.99722      3.81793      2.42141        -0.329738      0.680036      0.114885
O       2.06229      3.87692     14.91150        -0.412467      0.763935      0.115658
O       1.77980      0.03363      2.38331         0.021180      0.435241      0.331426
O       1.95804      0.05716     14.78488        -0.083849     -1.242821      0.694073
O      13.54556      3.81796      2.69385         0.021724      0.028407     -0.563742
O      13.63622      3.85736     14.96326         0.400672     -0.754802     -0.016994
O      13.60694      0.03284      2.56387         0.009364     -0.238757     -0.058143
O      13.67118     15.57472     14.89629        -0.090042     -0.619915      0.539065
O       1.85567      3.78920      6.69252         0.051552     -0.117868      0.026750
O       2.08800     15.53194      6.68243        -0.311307      0.424075     -0.117621
O      13.62634      3.92795      6.90309        -0.266491     -0.926876     -0.739258
O      13.63588     15.58234      6.95580        -0.230264      0.019199     -0.830158
O       1.91372      3.89803     10.95221        -0.293861     -0.581222     -0.078679
O       1.88408     15.55467     10.91466         0.061653     -0.047972     -0.506987
O      13.54508      3.83793     10.89825         0.553708      1.098558     -0.113390
O      13.63830     15.54889     10.67945         0.379788     -0.223327      0.069683
O       1.90819      7.68067      2.55098         0.000678      0.469828     -0.353641
O       1.77540      7.75777     14.99170         1.181825      0.230719     -0.027746
O      13.63875      7.74741      2.46708        -0.427879     -0.912465      0.118972
O      13.68034      7.74298     15.07549        -0.256078      0.011549     -0.206215
O       2.06130      7.65000      6.73467        -0.079700      1.142396      0.048899
O      13.66743      7.74857      6.60709        -0.317913      0.767767      0.401042
O       2.21261      7.64382     10.62774        -0.019372      1.707844      0.478290
O      13.65892      7.74585     10.89697        -0.393595      0.248979     -0.245254
O       1.75758     11.64701      2.28083         0.692838      0.258383      0.751774
O       1.93592     11.72128     14.99729         0.136006     -0.053073      0.009345
O      13.67452     11.65725      2.46059        -0.285843     -0.105802      0.035122
O      13.82566     11.65133     15.10439        -0.338302      0.306679     -0.425040
O       1.92230     11.67084      6.78816         0.272016     -0.066994     -0.616740
O      13.57160     11.67767      6.59597         0.036592      0.077796      0.219819
O       1.95114     11.66689     10.84831        -0.016428     -0.061509     -0.549360
O      13.57484     11.59489     10.78871         0.611500     -0.715164      0.135607
O       5.91621      3.87052      2.31475         0.036028     -0.611341      0.393949
O       5.89728      3.82743     15.01669        -0.049615      0.225844     -0.217477
O       5.77954     15.56924      2.52903        -0.055769      0.638189     -0.113906
O       5.92727     15.59666     15.10737        -0.628087     -0.710892     -0.247316
O       5.92129      3.92555      6.71911         0.091083     -0.501105      0.262848
O       5.74938      0.06640      6.58674        -0.132443     -0.447330     -0.139367
O       6.00097      3.86372     10.90471         0.054266     -0.196150     -0.012598
O       5.81809     15.58990     10.98806         0.063072     -0.060822     -0.489582
O       5.80101      7.82877      2.34865        -0.037753      0.107352     -0.103525
O       5.84174      7.78390     15.02582         0.135887      0.415153     -0.186073
O       5.83686      7.80229      6.60853        -0.528082     -0.539041      0.319084
O       5.75375      7.79484     10.91250        -0.528859      0.022995     -0.344773
O       5.70325     11.73557      2.56285         0.032554     -0.227179     -0.466784
O       5.85824     11.68009     14.91074        -0.174608      0.495391      0.220446
O       5.91987     11.74068      6.66925        -0.106680      0.272015     -0.114982
O       6.00433     11.78187     10.91073        -0.574012     -0.117664     -0.731425
O       9.57182      3.84469      2.49776         0.149553      0.447622     -0.156440
O       9.72388      3.84884     14.84553         0.050833      0.145202      0.532782
O       9.75490     15.57045      2.47004         0.267059     -0.757787      0.509484
O       9.87715     15.51817     14.86766         0.189340     -0.067231      0.731323
O       9.61152      3.89034      6.59585         0.513925      0.773476      0.315290
O       9.70653      0.00572      6.61450         0.025593     -0.275744      0.480918
O       9.65898      3.82801     10.97851         0.656401      1.069278     -0.480015
O       9.81625     15.54458     10.65511         0.091806     -0.023885      0.545965
O       9.79478      7.72174      2.39465        -0.186091      0.669549      0.108866
O       9.88801      7.78065     15.05437        -0.311886      0.904505      0.167283
O       9.69387      7.84453      6.67736         0.892157     -0.491367      0.471390
O       9.86302      7.78662     10.91266        -0.460022      0.076518     -0.692391
O       9.76008     11.63697      2.71771        -0.009581      0.542143     -0.764988
O       9.71080     11.69629     14.95984         0.049419     -0.272932     -0.198375
O       9.75383     11.79064      6.67008        -0.273599     -1.213269     -0.290048
O       9.72337     11.72848     10.93793         0.012255     -0.977914     -0.719490
