  # total energy = -7881.91660478 
CRSYTAL
PRIMVEC
    15.6080000000000005    0.0000000000000000    0.0000000000000000
     0.0000000000000000   15.6080000000000005    0.0000000000000000
     0.0000000000000000    0.0000000000000000   16.6239999999999988
PRESSURE
-0.364627 -0.36144 0.646635 -0.131343 0.083374 0.004379
PRIMCOORD
320 1
Pb       3.83104      3.79632      4.06665         0.487648      0.178215      0.817181
Pb       3.77647      3.77566      0.04508         0.252487      0.293754     -0.403754
Pb       3.90579     15.50416      4.23324         0.418346      0.068545     -0.190848
Pb       3.91223     15.53768      0.07510        -0.035236      0.044316     -0.335414
Pb      15.49071      3.82708      4.14690         0.394510      0.353160     -0.420993
Pb      15.54937      3.91066     16.55388         0.291208      0.405775      0.480011
Pb       0.11577      0.01276      4.19250        -0.441911     -0.571438     -0.037517
Pb       0.05118     15.54992     16.62249        -0.018224      0.058915      0.623772
Pb       3.98171      3.99888      8.34835        -0.281502     -0.208617     -0.489503
Pb       3.91248      0.14486      8.48248         0.247213     -0.002294     -0.701400
Pb       0.04589      3.91407      8.22826         0.115739      0.123557     -0.181455
Pb       0.09286      0.06421      8.29040        -0.807786      0.076058      0.187992
Pb       3.86864      3.99223     12.40220        -0.154898     -0.064570      0.190440
Pb       3.85022     15.55746     12.33399         0.449487      0.248486      0.248878
Pb      15.53359      3.75122     12.23051         0.004865      0.143351      1.387736
Pb      15.48875     15.59716     12.38737         0.290139     -0.284913     -0.050210
Pb       3.83581      7.74349      4.20549         0.004641      0.171107     -0.356821
Pb       3.78423      7.80210     16.59048         0.320337     -0.165942     -0.044859
Pb      15.56865      7.81333      4.05443         0.346672      0.279007     -0.166140
Pb       0.01289      7.79912      0.00835        -0.016984     -0.146829     -0.146125
Pb       4.03591      7.82804      8.23393        -0.941000     -0.054012      1.189311
Pb       0.05909      7.84629      8.17434        -0.029793     -0.236640      1.130710
Pb       3.77186      7.85882     12.53448         0.260286     -0.093125     -0.318616
Pb      15.59058      7.75963     12.41102        -0.095181     -0.045504     -0.003729
Pb       3.96712     11.67154      4.22154        -0.091967      0.146941     -0.170835
Pb       3.89106     11.66448     16.51838        -0.085051      0.012992      0.469181
Pb       0.04976     11.80238      4.18162        -0.037797     -0.339114     -0.347089
Pb       0.05986     11.75482      0.06471         0.007344     -0.114349      0.120171
Pb       3.88932     11.58467      8.25507        -0.119458      0.209091      0.420427
Pb      15.45579     11.72202      8.31896         0.329388     -0.178641     -0.129265
Pb       3.77091     11.81951     12.55439         0.259494     -0.468025     -0.044685
Pb      15.47998     11.57011     12.37604        -0.065087      0.695731      0.364613
Pb       7.74665      3.96212      4.09634         0.175516     -0.174638      0.014756
Pb       7.62905      3.67356      0.02445         0.089310      0.718964      0.013469
Pb       7.73010      0.00475      4.07731        -0.046905      0.010095      0.360972
Pb       7.78082     15.41802      0.01177         0.020216      0.027675     -0.573042
Pb       7.77462      3.96169      8.23582         0.364724     -0.163045      0.534236
Pb       7.78806     15.53225      8.44529         0.051328      0.294115     -0.285480
Pb       7.75605      4.09063     12.46610         0.479224     -0.319295      0.280386
Pb       7.87345      0.12742     12.49400        -0.612508     -0.424431     -0.025993
Pb       7.60923      7.79170      3.97239         0.883527     -0.139760      0.502229
Pb       7.91058      7.81166     16.54498        -0.498987     -0.643356      0.312534
Pb       7.80937      7.80993      8.43759        -0.086618     -0.012073     -0.390305
Pb       7.80931      7.82512     12.56102         0.040112     -0.153393     -0.036392
Pb       7.72286     11.75931      4.06821         0.688492     -0.663632      0.400105
Pb       7.82136     11.51454     16.61781         0.361078      0.682681     -0.226733
Pb       7.61654     11.63904      8.36882         0.584618     -0.228284     -0.513372
Pb       7.71451     11.66421     12.52743         0.602450     -0.167410      0.258826
Pb      11.63950      4.03073      4.16661         0.127335     -0.345114     -0.286245
Pb      11.72955      3.77643     16.43292        -0.210098      0.397158      1.039294
Pb      11.85382      0.22997      4.21376        -0.214422     -0.886536     -0.081019
Pb      11.71149     15.55238      0.03263         0.083535      0.207228      0.075326
Pb      11.67294      3.77670      8.19614        -0.030981      0.479364      0.059666
Pb      11.57464     15.42574      8.21799         0.449077      0.370532     -0.032161
Pb      11.60726      3.87638     12.41475        -0.235353     -0.017759      0.025200
Pb      11.86961     15.54040     12.44889        -0.532029      0.269172      0.361944
Pb      11.72722      7.76825      4.03191        -0.325543      0.385507      0.236682
Pb      11.64656      7.72590     16.56870         0.011987      0.423318     -0.014900
Pb      11.71011      7.84561      8.08938        -0.320372     -0.894874      0.736827
Pb      11.80431      7.61791     12.46225        -0.636118      0.177071     -0.313704
Pb      11.54180     11.95244      4.24442         0.158899     -0.750402     -0.557088
Pb      11.84989     11.78971     16.60967        -0.511848     -0.425886     -0.017330
Pb      11.66519     11.58257      8.15797        -0.216408      0.630962      0.492087
Pb      11.57220     11.59271     12.38295         0.268685     -0.013850      0.413662
Ti       1.95903      1.83091      2.36801         0.288979      0.148796     -0.846464
Ti       1.92439      1.84679     14.73324         0.514869      0.187733     -0.336632
Ti       2.04889     13.55469      2.31545         0.059943      0.098578     -1.147150
Ti       1.95502     13.54978     14.64836         0.345448      1.096321      0.655372
Ti      13.68519      1.93169      2.18040        -0.035418      0.014079     -0.305043
Ti      13.73317      1.96544     14.75248        -1.308203      0.179302      0.321537
Ti      13.66524     13.59178      2.32180        -0.178852      1.017963     -0.963663
Ti      13.72589     13.72508     14.70809        -0.353451     -0.470540     -0.584054
Ti       1.94276      2.06738      6.39261         1.226899     -0.320218      0.760610
Ti       1.95287     13.65481      6.50392         0.850228      0.347002     -0.908024
Ti      13.67177      1.97834      6.30644        -0.110881     -0.647037      1.357344
Ti      13.72012     13.61057      6.31841        -0.241273      1.171528     -0.548609
Ti       1.95073      1.95673     10.51853         0.294229      0.092915     -1.111228
Ti       1.93095     13.65142     10.50542        -0.862662     -0.339161      0.492509
Ti      13.52597      1.91130     10.39259         0.487343     -0.497347     -1.034512
Ti      13.54696     13.63651     10.54212         1.005790     -0.286911     -0.992228
Ti       1.93744      5.78408      2.26622        -0.044798      0.183856     -0.596789
Ti       1.93249      5.77256     14.69427        -0.530381      0.046560      0.392157
Ti      13.70296      5.92221      2.07018        -0.181961     -1.180861     -0.084731
Ti      13.61598      5.98782     14.63312         0.571440     -1.380998      1.776267
Ti       1.99987      6.01670      6.27802         0.002835     -1.320349     -0.210753
Ti      13.77259      5.87840      6.27625        -1.222968     -0.728373      0.795497
Ti       1.84642      5.92303     10.51261         1.387229      0.241173     -1.507863
Ti      13.70702      5.70471     10.36386        -1.381099      1.121763      1.930784
Ti       2.04703      9.75213      2.27824        -0.887100      0.466539     -0.291323
Ti       1.89055      9.74679     14.65860         0.557657      0.196326      0.247712
Ti      13.61271      9.79381      2.24765         0.308158      0.668428     -0.971035
Ti      13.67402      9.80860     14.65719        -0.881415      0.078672      0.563742
Ti       1.83940      9.79337      6.31614         1.009397      0.019658      0.416971
Ti      13.60018      9.70992      6.33673         0.524733      0.402211     -0.215332
Ti       1.84165      9.79473     10.56545         1.247993     -0.565767      0.371146
Ti      13.56548      9.60358     10.50400         0.252307      0.113741      0.112723
Ti       5.89345      1.87175      2.27041        -0.705501     -0.231608      2.211633
Ti       5.76451      1.92662     14.60540         0.544940      0.000854      0.694925
Ti       5.91462     13.47527      2.13576        -0.983727      1.521011      0.196360
Ti       5.84487     13.63472     14.63129         0.575328     -0.081940      1.083245
Ti       5.90162      1.97865      6.42096        -1.248128     -0.735331      0.353321
Ti       5.84388     13.67495      6.51632        -0.361892      0.069629      0.368886
Ti       5.91897      2.02697     10.59476        -0.671162     -0.725149     -0.102905
Ti       5.86159     13.53455     10.61457        -0.296216      0.755674      0.225790
Ti       5.77370      5.78959      2.24276         0.408194     -0.662385     -0.290105
Ti       5.75422      5.82268     14.66701         0.520557     -0.134409     -0.181839
Ti       5.87148      5.84124      6.38374        -0.663277     -0.221503     -0.014588
Ti       5.83165      5.87149     10.55422        -0.031750      0.286252     -0.382399
Ti       5.83442      9.68112      2.13241        -0.057635      0.333285      0.246772
Ti       5.82092      9.73225     14.70442        -0.321171     -0.304730      0.841688
Ti       5.79730      9.67707      6.28695         0.621044      0.952323      0.298270
Ti       5.77837      9.67093     10.65149        -0.367654      0.340427      0.685399
Ti       9.80887      1.90031      2.20602        -0.271601      0.328540     -0.431740
Ti       9.64769      1.90765     14.69836         0.494455      0.513157      0.250443
Ti       9.72187     13.72979      2.20813         0.714181     -1.091797     -0.287146
Ti       9.80475     13.63895     14.63331        -1.086048     -0.779055      1.704596
Ti       9.70093      1.87085      6.34661         0.375437      0.214432      0.062361
Ti       9.67814     13.56746      6.32749        -0.156308     -0.120372      0.328621
Ti       9.75069      1.86297     10.53763        -0.370075      1.209177     -0.612805
Ti       9.73367     13.66440     10.58068        -0.231757     -0.848243     -0.518114
Ti       9.82263      5.78792      2.18599        -0.811729      0.236532     -0.464110
Ti       9.68141      5.75331     14.75117        -0.348811      0.394813     -0.424425
Ti       9.72992      5.82474      6.32005         0.704332     -0.276865      0.331406
Ti       9.79924      5.85165     10.51750        -0.198308     -0.890251      0.065712
Ti       9.75509      9.73234      2.18567        -0.116407      1.231912      0.294287
Ti       9.75560      9.70054     14.73173         0.868270      0.680942      0.413090
Ti       9.69547      9.69497      6.24801        -0.624158      0.687900     -0.215642
Ti       9.73559      9.65547     10.57520        -0.693156      0.358163      1.003830
O       1.99187      1.84405      0.59381         0.191989      0.286235     -0.880863
O       1.96207      1.86768     12.96535        -0.150843      0.103135     -0.082910
O       2.04187     13.33308      0.48940         0.191437      0.917384      0.423536
O       1.86871     13.63793     12.91299         0.016420      0.213067     -1.015594
O      13.55443      1.89485      0.40189         0.508207     -0.198634      0.115963
O      13.62534      1.99606     13.00230        -0.076524     -0.364852     -0.947767
O      13.57717     13.64530      0.44682         0.388293     -0.157425      0.610911
O      13.71931     13.78483     12.86555        -0.147045     -0.092028      1.123177
O       1.88366      1.77796      4.63126         0.242633      0.316881     -0.255768
O       2.02150     13.75897      4.67875        -0.380909     -0.514113      0.196194
O      13.80652      2.01710      4.52173        -0.576122     -0.136743     -0.128912
O      13.76062     13.59267      4.48310        -0.229497     -0.168997      1.313876
O       1.88001      1.90002      8.69513        -0.041764      0.470491      0.606240
O       1.97564     13.51334      8.75778        -0.408987      0.304893     -0.576691
O      13.63792      1.90467      8.60861         0.022333     -0.129402      1.046505
O      13.52313     13.72448      8.71522         0.191838     -0.649328      0.164048
O       1.87700      5.82066      0.43592         0.281154      0.064881      0.905238
O       1.95819      5.77801     12.92315         0.009826      0.311913     -0.655916
O      13.69177      6.00019      0.27793         0.135451     -0.210153      1.506339
O      13.46832      5.78915     12.89347         0.506797      0.288195     -0.590473
O       1.99769      5.86643      4.46530         0.019153      0.681675      0.885071
O      13.73030      5.88639      4.50498        -0.339325     -0.196759      0.098144
O       1.82094      6.02898      8.68088        -0.143321     -0.750080      1.196918
O      13.77551      5.84339      8.69050         0.164196     -0.098663     -1.834053
O       1.97663      9.94661      0.47724        -0.129339     -0.509800      0.019403
O       2.10327      9.80958     12.88978        -0.787609     -0.580989     -0.029738
O      13.65921      9.85491      0.41662         0.209677     -0.127340      1.080918
O      13.69561      9.67491     12.86970        -0.291819      0.006654     -0.049466
O       2.00033      9.75520      4.56135        -0.136916      0.015865     -0.107717
O      13.64458      9.67271      4.60316         0.197026     -0.148476     -0.679744
O       1.94999      9.68560      8.85182        -0.317740      0.332882     -1.200891
O      13.63505      9.67811      8.74884        -0.174046      0.444815     -0.705904
O       5.74331      1.88727      0.58458        -0.101538      0.049976     -2.570527
O       5.79598      1.95670     12.84786        -0.059645     -0.145122     -0.195277
O       5.79107     13.60717      0.36833         0.106475      0.168515      0.476524
O       5.86775     13.52401     12.89716         0.095678      0.364278     -1.324370
O       5.92804      1.76399      4.68968        -0.106104      0.426631     -0.426693
O       6.02977     13.48586      4.78581        -0.442824      0.630241     -0.531152
O       5.91410      2.04478      8.82368        -0.134482      0.009271     -0.521997
O       5.60682     13.45526      8.84971         1.013232      0.086087     -0.034756
O       5.89688      5.63560      0.50526        -0.457822      0.546228      0.081091
O       5.75899      5.89001     12.84292        -0.360353     -0.442020      0.239093
O       5.76881      5.85927      4.62043         0.172348      0.194494     -0.586240
O       5.91913      5.70041      8.69161        -0.142746      0.451854      0.892659
O       5.92714      9.68016      0.35432        -0.397461     -0.228049      0.533467
O       5.85335      9.62222     12.94040        -0.161715     -0.111931      0.023026
O       5.74336      9.86091      4.51952         0.139712     -0.770891      0.901951
O       5.75751      9.67008      8.86623         0.897199      0.310497     -0.288477
O       9.78360      1.95978      0.41978        -0.301156     -0.303867      0.725013
O       9.71363      2.06225     12.90721        -0.210215     -0.500376      0.330665
O       9.82020     13.91526      0.43154        -0.346947     -0.550158     -0.025261
O       9.74420     13.54111     12.89710         0.072078      0.417079     -0.416289
O       9.92003      1.91043      4.57594        -0.651810      0.415827      0.213568
O       9.54920     13.37411      4.52384         0.500654      0.648660      1.067017
O       9.82073      1.76085      8.74107        -0.398239      0.130663     -0.243721
O       9.87069     13.74430      8.76346        -0.263135     -0.272076      0.840046
O       9.73875      5.93007      0.41397         0.091272      0.030953      0.093511
O       9.79226      5.66033     12.93083         0.163437      0.222809      0.126257
O       9.85198      5.67349      4.56057         0.031839      0.240500     -0.295299
O       9.65094      5.80617      8.75256        -0.238194      0.621483     -0.429969
O       9.61208      9.61648      0.39095         0.496657      0.063216      0.712698
O       9.70148      9.71168     12.98549         0.523238      0.059593     -0.567514
O       9.82580     10.01962      4.53383        -0.206225     -0.652432     -0.082970
O       9.58523      9.50235      8.82809         0.141327      0.229073     -0.782854
O       3.91640      1.86875      2.68964        -0.335466      0.404085     -0.099937
O       3.90473      1.96086     15.02054        -1.142926     -0.409486      0.270637
O       4.04003     13.61587      2.66633        -0.182347     -0.012923     -0.116016
O       3.95100     13.53278     14.80641        -0.728886      0.261265      0.557077
O       0.00470      1.76535      2.54839         0.066706      0.568110     -0.058707
O      15.59705      1.89289     15.07396         0.738821     -0.218030     -0.007997
O       0.12583     13.52967      2.54680        -0.581298      0.177034     -0.096620
O       0.06239     13.74892     15.11158        -0.959367     -0.875108     -0.408913
O       3.93438      1.89445      6.80346        -0.763558     -0.111437     -0.043111
O       3.87626     13.67171      6.70061         0.135848     -0.248940      0.096792
O       0.05167      2.08717      6.66987        -0.206422     -0.225244      0.046181
O      15.58582     13.49034      6.64995        -0.372286      0.192798      0.363937
O       3.91741      1.92297     10.67850        -0.857342      0.287082      0.579401
O       3.81286     13.52105     10.90253         0.317547      0.470126      0.196251
O      15.50408      1.89867     10.78497         0.198978      0.014739     -0.063278
O      15.56742     13.78639     10.84687         0.303044     -0.501793     -0.414085
O       3.88605      5.67538      2.55784         0.015708      0.400944     -0.376312
O       3.82347      5.61742     14.98290         0.115680      0.941013      0.273616
O       0.03411      5.85347      2.54238        -0.645647      0.142919     -0.336496
O      15.59559      5.87425     15.02503        -0.400433      0.263395     -0.317757
O       3.84855      6.00600      6.72435         0.388211     -0.175577     -0.263287
O       0.04686      5.78652      6.54187        -0.520449      0.313013      0.116786
O       3.83018      5.99268     10.66384         0.413735     -0.916172      0.626875
O      15.57546      5.72931     10.95239        -0.669740      0.515822     -0.566303
O       3.95123      9.78380      2.57920        -0.220804     -0.061614     -0.314413
O       3.87296      9.61515     15.09414         0.187538      0.612832     -0.442756
O       0.05451      9.74695      2.58762        -0.424609      0.199345     -0.082060
O       0.00465      9.94020     14.87855         0.052025     -0.603441      0.265270
O       3.85826      9.58978      6.74550         0.453883      0.799216     -0.753568
O      15.58982      9.69082      6.77416        -0.721353      0.789082     -0.634052
O       3.87864      9.60819     10.88449         0.187524      0.374326      0.075442
O      15.54187      9.59800     10.82404        -0.102919      0.744991      0.353454
O       7.78672      2.04013      2.54323         1.310073     -0.464080      0.024970
O       7.67727      1.94942     15.07798         0.359017     -0.160075     -0.346693
O       7.80434     13.75118      2.57222        -1.113710     -0.350220     -0.691965
O       7.78934     13.49803     15.07167         0.492618      0.744503     -0.202804
O       7.76028      1.97586      6.72753         1.388298     -0.059438     -0.104805
O       7.83193     13.64180      6.87941        -0.633263     -0.466658      0.241378
O       7.76739      1.87481     10.82989         0.530885      0.063414      0.307617
O       7.82471     13.61348     10.77071        -0.699854     -0.329081     -0.068356
O       7.90612      5.82682      2.58305        -0.989631      0.297372      0.086212
O       7.70850      5.86167     14.86795         0.541494      0.004784      0.203888
O       7.73333      5.72185      6.55503         1.045512      0.189985      0.252694
O       7.75615      5.84265     10.91164         0.371333     -0.046464     -0.327712
O       7.76220      9.68046      2.58289        -0.532118     -0.203965     -0.485979
O       7.82674      9.66624     15.10361        -0.892169     -0.155210     -0.830797
O       7.81143      9.79670      6.52611        -0.938188     -0.550027      0.520180
O       7.86600      9.75911     11.12276        -0.806785     -0.585553     -1.186641
O      11.74996      1.84089      2.54562        -0.076819      0.166937     -0.069340
O      11.62540      1.94012     15.05405         0.123679      0.014999     -0.673798
O      11.66160     13.71710      2.58267         0.145679     -0.499011      0.135658
O      11.68964     13.74868     15.01393         0.204549     -0.187877     -0.432878
O      11.77851      1.90185      6.60879        -0.597346      0.086460     -0.231242
O      11.58638     13.61607      6.56479         1.167218     -0.339161     -0.099493
O      11.61212      1.75540     10.76667         1.252066      0.434782      0.439185
O      11.65510     13.59727     10.92622         0.092105      0.421250      0.051196
O      11.73978      5.92260      2.48495         0.622224      0.011810      0.035681
O      11.70278      5.78175     15.00793         0.172268      0.406270     -0.149885
O      11.69762      5.81648      6.69454         0.265005     -0.046478     -0.256049
O      11.70376      5.75713     10.69883         0.005854      0.343502      0.379264
O      11.71433      9.88866      2.57524        -0.057183     -0.678843     -0.482488
O      11.68800      9.76556     15.08357         0.829719     -0.100682     -0.409809
O      11.68327      9.74057      6.64216         0.048834     -0.265662      0.175384
O      11.67403      9.66388     10.79642         0.185446      0.326895      0.291702
O       1.91094      3.83990      2.70608        -0.169885     -0.073088     -0.658524
O       1.84649      3.90452     15.06808         0.080060     -1.509270     -0.104656
O       2.07931     15.51139      2.48675        -0.205247     -0.014305      0.453381
O       1.99415     15.48553     15.13010         0.191238      1.279835     -0.081403
O      13.67136      3.85974      2.33786         0.302402      0.519065      0.500047
O      13.73572      3.92219     15.13465        -0.388467     -0.374098     -0.859131
O      13.71116     15.49295      2.57303        -0.033049      0.825452      0.041961
O      13.67505     15.59820     15.02211         0.040367      0.150227     -0.060469
O       2.08746      3.99286      6.58322        -0.400162     -0.691869      0.256144
O       1.80603     15.56285      6.79923         0.459590      0.033072     -0.258378
O      13.67451      3.88821      6.76207         0.083914      0.575820     -0.781465
O      13.77341     15.59929      6.49594        -0.022839     -0.383790      0.079302
O       1.85551      3.88259     10.84969         0.492341     -0.026937     -0.301102
O       2.00191      0.06360     10.72966        -0.233250     -1.044623      0.342754
O      13.47518      3.81775     10.67771         0.696194     -0.174089      0.267213
O      13.58338     15.56512     10.80933        -0.124468      0.773544      0.351663
O       2.05617      7.83995      2.47993        -0.072122     -0.825026      0.149643
O       1.91014      7.84129     14.99751        -0.047815     -0.341084     -0.002392
O      13.72739      7.78348      2.44373        -0.264980      0.516034      0.221853
O      13.70693      7.87431     15.04762        -0.142929     -0.192321     -0.685894
O       1.85755      7.89825      6.63729         0.080604     -1.127273     -0.321092
O      13.60797      7.78514      6.68261         0.382380     -0.398542     -0.389658
O       1.86094      7.80459     10.83816        -0.469239     -0.553503      0.816598
O      13.57854      7.72699     10.71580         0.298644     -0.431936      0.643456
O       2.11339     11.70890      2.64526        -0.341105     -0.557429      0.545508
O       2.05461     11.70445     14.93582        -0.386973     -0.729019     -0.029211
O      13.65930     11.69943      2.58632         0.284937     -0.216129     -0.053572
O      13.64527     11.74562     14.98752        -0.056185      0.408252     -0.299352
O       1.89498     11.64791      6.72758         0.210782      0.197555     -0.044689
O      13.62627     11.67387      6.61248        -0.117044     -0.086576      0.419120
O       1.83118     11.69110     10.94176        -0.045458      0.093406     -0.488389
O      13.63039     11.75545     10.91440         0.094041     -0.920552     -0.531323
O       5.91516      3.83795      2.62869        -0.500551      0.749823      0.098510
O       5.74858      3.85574     15.00820         0.423811     -0.416643     -0.005128
O       5.82178     15.58764      2.63899         0.482587     -0.631538     -0.335361
O       5.84668     15.53520     14.93633        -0.141584      0.564586      0.145656
O       5.67773      3.91239      6.62858         0.430794     -0.060867      0.215150
O       5.87250     15.58670      6.94261         0.090500     -0.347844     -0.321130
O       5.84990      3.92076     10.94537        -0.354278      0.335595     -0.414250
O       5.82179     15.52041     10.90920        -0.036414     -0.184819     -0.303514
O       5.64172      7.78451      2.57607         0.873723     -0.664378     -0.324642
O       5.70590      7.66898     15.03144         0.060739      0.586325      0.168810
O       5.90432      7.78412      6.78313         0.256136      0.362702     -0.589764
O       5.97508      7.76970     10.87027        -0.204597     -0.080752     -0.267693
O       5.82920     11.63823      2.43514         0.410284      0.191363     -0.003050
O       5.86180     11.60924     14.98720        -0.041876     -0.362115     -0.264213
O       5.77914     11.62697      6.81409         0.206605     -0.286491     -0.164584
O       5.85403     11.61146     11.08690        -0.128254      0.249061     -1.010340
O       9.90850      3.92539      2.49234        -0.234488     -0.666388      0.079892
O       9.58407      3.94714     15.14315         0.481098     -1.084257     -0.295798
O       9.69343     15.60783      2.52935         0.028261      0.925730      0.360816
O       9.57205      0.06228     14.97183         0.276064     -1.081344     -0.463552
O       9.79210      3.86699      6.76424        -0.280896     -0.628993     -0.458414
O       9.74074     15.52893      6.53399        -0.248537      0.540645      0.224393
O       9.72740      3.83229     10.83252         0.020133      0.160828     -0.192406
O       9.63452     15.58127     10.89071         0.344838     -0.702822      0.316001
O       9.77914      7.91432      2.57077         0.176525     -1.384429      0.296359
O       9.82849      7.75981     14.99121        -0.365664     -0.360354      0.026158
O       9.77512      7.72171      6.42096        -0.251347      0.655270      0.608990
O       9.75807      7.72438     11.00393        -0.067574     -0.024017     -0.324282
O       9.53719     11.73649      2.39431         0.638749     -0.062821     -0.300315
O       9.74762     11.64590     15.16801         0.245798      0.971321     -0.615090
O       9.74345     11.58431      6.81312        -0.032671      0.824391     -0.054452
O       9.73396     11.61471     10.97923         0.209030      0.472411     -0.931345
