  # total energy = -7878.80016349 
CRSYTAL
PRIMVEC
    15.6080000000000005    0.0000000000000000    0.0000000000000000
     0.0000000000000000   15.6080000000000005    0.0000000000000000
     0.0000000000000000    0.0000000000000000   16.6239999999999988
PRESSURE
-0.717354 -0.527283 -0.981022 -0.325806 0.406314 -0.065328
PRIMCOORD
320 1
Pb       4.01469      3.90162      4.11043         0.101186      0.093269      0.354921
Pb       4.09011      4.04452      0.15585        -0.174132     -0.262682     -0.488672
Pb       3.89876      0.03510      3.96768        -0.284068     -0.345081      0.347868
Pb       3.77197     15.57334     16.58987         0.283472     -0.140630     -0.006307
Pb       0.08780      3.82673      4.19136        -0.497208      0.116963     -0.763839
Pb      15.53211      3.79264     16.59687         0.074858     -0.179313     -0.118563
Pb      15.56294     15.50345      4.01046        -0.026775      0.103786     -0.513752
Pb      15.53802     15.57153     16.56328         0.394052     -0.124721      0.320281
Pb       3.64387      3.72663      8.32992         0.803853      0.539539     -0.493590
Pb       3.86834      0.05455      8.21742         0.000554     -0.280715     -0.238714
Pb      15.48476      3.79559      8.29635         0.059116      0.084002     -0.010367
Pb       0.06388     15.57201      8.22384        -0.506938     -0.207106     -0.468731
Pb       3.83169      3.90941     12.46713        -0.439431      0.001889     -0.154890
Pb       3.83360     15.44043     12.40988         0.034285     -0.187928      0.425602
Pb       0.03901      3.89842     12.49399        -0.158232      0.254322      0.026773
Pb       0.01853      0.27137     12.69146         0.085788     -0.117371     -0.219536
Pb       3.79316      7.89654      4.21589         0.268869     -0.047743     -0.451177
Pb       3.83968      7.74440     16.55836        -0.034424      0.578633      0.475333
Pb       0.15022      7.89938      4.25443        -0.580762     -0.049622     -0.319941
Pb       0.02531      7.74858     16.59607        -0.380067     -0.117786     -0.727944
Pb       3.93424      7.66568      8.24401        -0.055432      0.519208     -0.202981
Pb      15.30467      7.72147      8.63760         0.125431      0.172348     -0.409192
Pb       3.92950      7.85216     12.41256         0.074207      0.243484     -0.246290
Pb      15.54260      7.96291     12.60708        -0.377706     -0.556684     -0.459651
Pb       3.81343     11.69541      4.04405         0.032057     -0.210889     -0.315052
Pb       3.86681     11.68704     16.49554         0.120792     -0.152154      0.455532
Pb      15.55285     11.67220      4.03412        -0.045011     -0.100445     -0.148906
Pb      15.54934     11.82679     16.57150        -0.309329     -0.059919     -0.352905
Pb       3.82988     11.70595      8.09266         0.152808     -0.038078      1.069568
Pb      15.59575     11.61301      8.27964        -0.124580      0.238194     -0.125765
Pb       4.00163     11.63615     12.30076        -0.418218      0.280194      0.202922
Pb       0.20545     11.60318     12.36430        -0.127496     -0.247581      0.628485
Pb       7.81468      3.66431      4.19853        -0.328011      0.691051     -0.330975
Pb       7.81229      3.99952      0.04558        -0.314895      0.334313     -0.333277
Pb       7.71763     15.44813      4.03707         0.138177      0.202041      0.333114
Pb       7.86709      0.18676      0.09990        -0.487270     -0.639349     -0.499187
Pb       7.58666      3.92657      8.38634         0.839198     -0.397866     -0.183281
Pb       7.89861     15.56327      8.28602        -0.006429      0.231251     -0.029287
Pb       7.70220      3.71601     12.43050         0.633454     -0.072158     -0.203868
Pb       7.64627     15.54743     12.54416         0.407309     -0.138709     -0.504971
Pb       7.74022      7.84480      4.17494         0.148571      0.210729     -0.105891
Pb       7.69537      7.93836     16.57811         0.469699     -0.230087      0.232969
Pb       7.83830      7.72849      8.22090         0.016084      0.181313     -0.062882
Pb       7.77784      7.60589     12.42464        -0.076600      0.622749     -0.302404
Pb       7.96675     11.73767      4.28984        -0.254567     -0.398949     -0.393131
Pb       7.60705     11.73785     16.58582         0.419377      0.462805      0.219215
Pb       7.67123     11.75707      8.15171         0.752508     -0.356941      0.575281
Pb       7.71663     11.49430     12.39323        -0.140381      1.229615     -0.063291
Pb      11.87525      3.83849      4.40398        -0.495667     -0.010820     -0.712823
Pb      11.80235      4.08428      0.20310        -0.127999     -0.241111     -0.625255
Pb      11.55780     15.43601      4.17633         0.236480      0.135119     -0.106040
Pb      11.57886     15.49874      0.03549        -0.245706     -0.117404     -0.394690
Pb      11.74032      4.15702      8.47701         0.107717     -0.798685     -0.261242
Pb      11.64094      0.17042      8.31263         0.488032     -0.225218     -0.382751
Pb      11.81731      3.81840     12.64427         0.052131      0.226287     -0.949007
Pb      11.72229     15.58773     12.43946        -0.129935      0.189882     -0.234693
Pb      11.77304      7.61561      4.14141        -0.350064      0.490296     -0.183109
Pb      11.47908      7.80400      0.02552         0.297384      0.276532     -0.135398
Pb      11.58189      7.89446      8.31439         0.282853      0.008767      0.090572
Pb      11.43426      7.99629     12.69410         1.049153     -0.614815     -0.923593
Pb      11.76061     11.28656      4.25746         0.120457      0.396493     -0.028954
Pb      11.74448     11.75080     16.51883        -0.251038     -0.027827     -0.222627
Pb      11.97929     11.96837      8.52784        -0.371154      0.101928     -0.419968
Pb      11.56221     11.90569     12.38136         0.734946     -0.944134      0.837381
Ti       1.90990      1.94189      2.12525        -0.850008     -1.002425     -0.952240
Ti       1.97543      1.88471     14.85576         0.199252      0.240473     -0.760572
Ti       1.89419     13.63685      2.13013        -0.218065     -0.172800     -0.418957
Ti       1.97487     13.52049     14.77054        -0.639911      1.122330     -1.605576
Ti      13.50443      1.90602      2.06369         1.235362     -0.408269      1.542149
Ti      13.45530      1.90142     14.80066         0.278424      0.498208     -0.801967
Ti      13.50436     13.54401      2.15242         1.219911      0.741734     -0.012059
Ti      13.59016     13.73620     14.59115         0.697616     -2.549576      0.142448
Ti       1.91164      2.06504      6.11938         0.367230     -2.132932      0.321352
Ti       1.95733     13.69584      6.28582        -0.818026     -0.029044     -0.357085
Ti      13.70181      1.87124      6.20609        -1.165951     -0.248867      1.364876
Ti      13.65943     13.67366      6.24763        -0.248508     -0.452558      0.608090
Ti       1.94814      1.90100     10.50945        -0.392313      0.511340      1.873628
Ti       1.87735     13.67758     10.51756         1.349493     -1.159918      0.182217
Ti      13.65254      1.84796     10.49391         0.174905      0.407117      0.227242
Ti      13.85257     13.59169     10.66759        -1.627050      0.666933     -1.154584
Ti       1.96618      5.73712      2.21236         0.191682      0.948670     -0.635941
Ti       1.97531      5.74344     14.83846        -0.944007     -0.241995     -0.830457
Ti      13.72923      5.84209      2.15985        -0.524529     -0.292217      0.933429
Ti      13.63871      5.84604     14.62776         0.239324      0.393121     -0.827772
Ti       1.96134      5.89369      6.28267         0.298273      0.270738      1.345668
Ti      13.74761      5.74421      6.34646         0.156000      0.879386      0.058513
Ti       2.10851      5.82144     10.33761        -1.654252      0.151344      0.847271
Ti      13.75407      5.74096     10.57324        -0.627551      0.795360      2.195767
Ti       1.85495      9.63833      2.04319         1.059412      0.897259      0.944286
Ti       1.90745      9.70436     14.64896         0.125607      0.012397     -0.268880
Ti      13.65881      9.63228      2.01489        -0.816871      0.294048      1.037112
Ti      13.56238      9.78178     14.53218         1.266638      0.497860     -0.153027
Ti       1.91075      9.79656      6.35331        -0.429291     -0.511693     -0.214448
Ti      13.63723      9.68026      6.48014         0.105299      0.104726     -0.781359
Ti       1.97936      9.60838     10.45104         0.187396      0.704041      1.254655
Ti      13.55560      9.73182     10.54367         0.396652     -0.819698      0.404179
Ti       5.81354      1.87350      2.14763         0.009418      0.646355      0.073582
Ti       5.82359      2.02059     14.70258        -0.570277     -0.655531      0.964551
Ti       5.74655     13.70401      2.06083         0.746210     -0.899043     -0.127748
Ti       5.83419     13.72710     14.64355        -0.022093     -0.390275      0.249589
Ti       5.84235      1.98206      6.40453        -0.142785     -0.156409     -0.804240
Ti       5.83806     13.74581      6.31977        -0.542885     -0.228660     -0.329398
Ti       5.80020      1.84355     10.48112         0.560463      0.232235     -0.580800
Ti       5.86845     13.68322     10.36564         0.088121     -1.146708      0.430165
Ti       5.89444      5.88044      2.36107         0.009253      0.207896      0.164231
Ti       5.83555      5.97598     14.54125         0.710404     -1.390235     -0.325260
Ti       5.89862      5.83610      6.39478        -0.269161     -1.353376     -1.376378
Ti       5.92645      5.75906     10.40983        -0.791044      0.894421      0.963821
Ti       5.74431      9.80742      2.11997         0.499492     -0.347247      0.242566
Ti       5.78243      9.77496     14.67268        -0.412024      0.715178     -0.298754
Ti       5.79428      9.84345      6.32419         0.180588     -0.786480      0.037672
Ti       5.88903      9.70541     10.40220        -0.939022      0.400065     -0.903896
Ti       9.70226      1.87152      2.24867         0.369233      0.788011      0.884085
Ti       9.62210      1.98519     14.55458         0.884636     -0.404492     -0.614588
Ti       9.65893     13.57710      2.17628         0.083595     -1.013581     -0.565260
Ti       9.67640     13.68080     14.57920         0.117614      0.027777      0.367539
Ti       9.68225      1.91521      6.32555         1.473047     -0.791532      0.882948
Ti       9.74223     13.59241      6.39645         1.637482     -0.055646     -0.403750
Ti       9.79153      1.99035     10.42930        -0.405772     -0.148671      0.120184
Ti       9.77649     13.66977     10.45876        -0.493523     -0.822557     -0.478352
Ti       9.73357      5.80760      2.26396        -0.222588     -0.012585      1.620532
Ti       9.75821      5.82133     14.47800         0.230737      0.086653      0.963573
Ti       9.81717      5.67516      6.33785        -0.609842      0.650456      0.348402
Ti       9.79936      5.85926     10.40808         1.452572     -0.014441      0.465116
Ti       9.67909      9.72711      2.27649         0.039400     -0.147994     -0.410564
Ti       9.65531      9.80020     14.63196         0.432759     -1.041971      0.901542
Ti       9.70014      9.68299      6.42300         0.498392      0.394789     -0.276434
Ti       9.70500      9.79694     10.42355         0.546996     -0.202893     -0.503328
O       1.94491      1.78928      0.26992         0.075228      0.227619      1.013551
O       1.88987      2.10135     13.00791         0.158871     -0.510775     -0.564770
O       1.85611     13.66449      0.31139        -0.127898     -0.379884      0.173190
O       2.02714     13.59539     12.97335         0.274562      0.160259     -0.581324
O      13.46895      1.87629      0.27426        -0.084293     -0.302501      0.000804
O      13.61787      1.77510     12.96903         0.036770      0.286375      0.193502
O      13.76421     13.50903      0.34126        -0.495162      0.181586      0.350620
O      13.45312     13.62235     12.81906         0.452341      0.449796     -0.589631
O       1.87550      1.91948      4.31364         0.273333      0.291524      0.901933
O       2.03390     13.56331      4.50410        -0.024984      0.104311     -0.288589
O      13.67034      1.99300      4.43436         0.389968      0.253435      0.018868
O      13.55956     13.61534      4.47723        -0.039993     -0.026784     -0.320114
O       1.90773      1.85434      8.81001         0.156052      0.038964     -1.925857
O       1.72501     13.53403      8.75761         0.206074      0.652347     -0.014169
O      13.73571      1.91105      8.70462         0.123406      0.165814      0.295047
O      13.82520     13.62208      8.81042         0.131755     -0.285922      0.362859
O       2.13237      5.89723      0.37895        -0.242290     -0.510552      0.831534
O       1.78654      5.55417     13.07854         0.869317      0.326103     -0.233691
O      13.43424      5.90214      0.42132         0.323484     -0.027171     -0.768049
O      13.78367      5.77151     12.77079        -0.227013     -0.236068      1.560150
O       1.93745      5.72344      4.52877        -0.327011      0.081644     -0.970526
O      13.85761      5.61393      4.56270        -0.594016      0.361188     -0.366587
O       2.12061      6.02328      8.57489        -0.133288     -0.454217     -0.064949
O      13.68920      5.68341      8.80443        -0.055179     -0.185231     -1.823779
O       1.96820      9.58357      0.28770        -0.005187      0.112012      0.043616
O       2.11110      9.80037     12.84952        -0.423091     -0.710885      0.275449
O      13.65621      9.68185      0.27232         0.049356     -0.009900     -0.435289
O      13.67543      9.66564     12.69547        -0.133568     -0.129478      1.215040
O       1.91010      9.72173      4.52235        -0.290077      0.329289     -0.192992
O      13.66149      9.70821      4.64617         0.354449     -0.238210     -0.098119
O       1.94490      9.54934      8.70919         0.221202      0.201555     -0.660186
O      13.58992      9.50469      8.68908         0.399426      0.723167      0.050688
O       5.96078      1.90556      0.35534        -0.284981      0.446220      0.053651
O       6.06354      1.94005     12.94739        -0.535032      0.085760     -1.670056
O       5.88972     13.70418      0.28495        -0.112819     -0.206268      0.696550
O       5.81742     13.63544     12.85106        -0.010522      0.257316     -0.067649
O       5.83496      1.92601      4.57740         0.071366     -0.057046      0.693681
O       5.75413     13.72370      4.50962         0.041684     -0.162725      0.783430
O       5.76407      1.87456      8.66939         0.188727      0.050609      0.710281
O       5.83557     13.75149      8.54667         0.275673     -0.412252      0.628986
O       5.89081      5.73243      0.54664        -0.135490     -0.063669     -0.900031
O       5.90135      5.84382     12.72542         0.064091      0.060860      0.976907
O       6.07769      5.66665      4.56600        -0.788426      0.095148      0.182615
O       5.77677      5.81374      8.64527         0.275141     -0.071060     -0.157209
O       5.70349      9.61238      0.27846         0.766114      0.230915      0.876160
O       5.83814      9.78922     12.87948         0.249427     -0.059723     -0.064715
O       5.88442      9.85873      4.55635        -0.259289     -0.483596     -0.452229
O       5.74889      9.73918      8.59982         0.291362     -0.057869      0.437994
O       9.73785      1.89820      0.48634        -0.215196      0.256593     -0.407563
O       9.63842      1.77435     12.75054         0.089066      0.255351      1.087146
O       9.70828     13.42526      0.36667        -0.161426      0.108916      0.505925
O       9.88383     13.72844     12.78399        -0.307874     -0.171462      0.590334
O       9.67056      1.74921      4.54330         0.077612     -0.301243     -0.674866
O       9.82760     13.73865      4.53659        -0.327156     -0.080801      0.192614
O       9.86570      1.93397      8.58170         0.008987      0.065582      1.391856
O       9.75276     13.41182      8.62530        -0.045395      0.447015      0.744510
O       9.74399      5.83509      0.51785         0.236238     -0.200069     -1.240655
O       9.76882      6.15365     12.75047         0.003313     -0.441440     -0.926698
O       9.84774      5.97589      4.61079        -0.500509     -0.423065     -0.670953
O       9.79633      5.72526      8.58760         0.463847     -0.140860      0.404201
O       9.69946      9.73824      0.47307         0.003058     -0.125667     -0.207276
O       9.66798      9.43888     12.86803        -0.339849      0.861130     -0.575814
O       9.67304      9.66358      4.59082         0.014178      0.001349      0.356415
O       9.70229      9.81129      8.61939         0.066090      0.088778      0.178712
O       3.83546      1.76001      2.35561         0.877961      0.323072      0.109880
O       3.96398      1.68653     14.97680        -0.299562      0.906794     -0.244003
O       3.86934     13.84413      2.27929         0.031880     -0.656859      0.555029
O       3.87138     13.56909     15.02841         0.471630      0.303307      0.018767
O       0.02225      1.97670      2.27126        -0.703688      0.084653      0.307271
O      15.54196      1.84703     15.03747        -0.121358      0.147712     -0.116248
O       0.01826     13.51678      2.44423        -0.398555     -0.040508      0.460858
O      15.57773     13.53020     14.84384        -0.455082      0.623650      0.339535
O       3.87883      2.03234      6.61501        -0.306062     -0.336840     -0.085918
O       3.83150     13.57471      6.67223         1.076159      0.362528     -0.157846
O       0.05106      1.89498      6.50330        -0.088146     -0.099353      0.205781
O      15.57590     13.82118      6.42410         0.425862     -0.678527      0.421803
O       3.94658      1.97191     10.83635         0.284253     -0.425682      0.190382
O       3.97955     13.71964     10.76569        -0.834940     -0.225133     -0.229525
O       0.02265      2.01662     10.86335         0.706121     -0.469086      0.045107
O       0.07563     13.62166     11.03121         0.091984      0.073889     -0.169972
O       3.92737      5.86110      2.64172        -0.407907     -0.548122     -0.124582
O       3.96547      5.94075     14.96605         0.357587     -0.180993     -0.354391
O       0.01502      5.77223      2.41534         0.588887     -0.260596     -0.134379
O      15.53402      5.74858     15.16358         0.906304     -0.565534      0.006083
O       3.89912      5.55500      6.63541        -0.171221      0.760258     -0.450522
O       0.04638      5.75421      6.65581         0.318607      0.377420      0.113565
O       3.95925      5.82291     10.87417         1.051652     -0.129390     -0.268514
O       0.07830      5.75134     10.65231         0.925327     -0.336250      0.030392
O       3.90067      9.56794      2.55715        -0.310329      0.545799     -0.319984
O       3.87876      9.62561     14.92032         0.622976      0.093840      0.096492
O      15.60473      9.79230      2.28678        -0.343118     -0.280161      0.568903
O       0.02366      9.70871     14.72232        -0.329485      0.070794      0.432316
O       3.85916      9.92620      6.52806         0.122079     -0.512937      0.182633
O       0.04528      9.74351      6.69098        -0.216661     -0.468237     -0.019389
O       3.97345      9.76156     10.77264        -0.320334     -0.598020      0.129607
O       0.04287      9.63701     10.84725         0.947955     -0.154782     -0.407009
O       7.74412      1.74356      2.46333         0.856483      0.864204      0.173592
O       7.72201      2.05159     14.95943         1.404228     -0.142456      0.531780
O       7.70009     13.59101      2.38282         0.598703     -0.391283      0.560674
O       7.79489     13.59934     14.87585         0.605569     -0.786544     -0.073562
O       7.89313      1.87744      6.75276        -1.654269     -0.143999     -0.150370
O       7.84684     13.60675      6.59387        -1.891958      0.959114     -0.066468
O       7.89536      1.78878     10.74663        -0.799006      0.173970     -0.228350
O       7.81758     13.61772     10.79242        -0.048308      0.061302     -0.295375
O       7.74635      5.58649      2.45925         1.208811      0.529475      0.340902
O       7.90889      5.84039     14.73676        -1.495926      0.001160      0.816013
O       7.86197      5.77730      6.72444        -0.257750      0.082879      0.102504
O       7.91261      5.90530     10.59222        -1.340888     -0.036485      0.444846
O       7.73676      9.80682      2.54553         0.028163     -0.183532     -0.342463
O       7.79391      9.84924     15.04743         0.027914     -0.357713     -0.294102
O       7.66447      9.59421      6.71567         1.042752      0.137778     -0.330434
O       7.82538      9.84035     10.84130        -0.025699     -0.732905     -0.656017
O      11.71535      1.78695      2.57367        -1.077127      0.042552     -0.431776
O      11.57203      1.98570     14.87948        -0.021341     -0.754073      0.090035
O      11.69731     13.76236      2.20926        -0.661272     -0.033253      0.460446
O      11.62372     13.63447     15.05336        -0.176556      0.375152     -0.077187
O      11.80988      1.90198      6.56496        -0.120229     -0.030634     -0.311718
O      11.71059     13.57764      6.70491         0.516417     -0.238640     -0.112783
O      11.72571      1.77259     10.80772         0.074980      0.721744     -0.153665
O      11.81492     13.41871     10.73046        -0.384392      0.744627     -0.553194
O      11.73998      5.84231      2.60794        -0.251075     -0.179441     -0.170107
O      11.70390      5.74918     14.83154        -0.066901      0.518901      0.213613
O      11.73513      5.66253      6.52017         0.581396      0.243228      0.439359
O      11.70986      5.66211     10.73832        -0.192036      0.041606     -0.222440
O      11.68012      9.57757      2.38879         0.630135      0.325681      0.606924
O      11.78100      9.62464     14.87148        -0.722605     -0.150601      0.074534
O      11.70887      9.71981      6.58797        -0.668920      0.125590      0.241253
O      11.74476      9.80476     10.75673        -0.988049     -0.210335      0.036033
O       1.99889      3.83599      2.31850         0.289289      0.675549      0.292047
O       2.09399      3.78095     15.10269        -0.097081      1.013117      0.596368
O       1.84459     15.52803      2.38059        -0.106010      0.304227      0.445001
O       1.93446     15.53841     14.99690        -0.282210     -0.039202     -0.198417
O      13.57729      3.85529      2.18475        -0.073735     -0.159927      0.504162
O      13.50714      3.84202     15.03808         0.612082      0.025633     -0.007119
O      13.78428     15.56429      2.47656        -0.392814     -0.004226     -0.469895
O      13.47954     15.49782     14.98429         0.364457      1.730739      0.315745
O       1.86057      3.81871      6.57296         0.059391      0.613610      0.164225
O       2.01835     15.58348      6.66735         0.008869      0.495339     -0.225970
O      13.75853      3.86495      6.66427        -0.094777     -0.617257     -0.064925
O      13.66669     15.57150      6.61765        -0.040473      0.303097     -0.327986
O       2.24406      3.91775     10.52446        -0.806048     -0.467017      0.840893
O       1.99548     15.58763     10.82630        -0.163908      0.074623      0.126541
O      13.68760      3.78138     10.97491        -0.311341     -0.192661     -0.542101
O      13.74614     15.55655     10.83127         0.129362     -0.048776      0.219289
O       1.93165      7.73499      2.45975        -0.324622      0.158713      0.487116
O       1.91893      7.71875     15.02600        -0.093265      0.019926     -0.426466
O      13.75467      7.76435      2.51464         0.057177      0.139641     -0.086258
O      13.86900      7.71287     14.84908        -0.759625      0.518192     -0.108035
O       2.08291      7.85756      6.36844         0.152716     -1.550999      0.333148
O      13.68007      7.71268      6.76720         0.025341     -0.667657     -0.468755
O       2.19588      7.67670     10.89483        -0.840583      0.765899     -0.370193
O      13.77311      7.69617     10.76519        -0.012075     -0.031085     -0.216073
O       1.98277     11.62879      2.35311         0.449519     -0.057959      0.237106
O       1.93556     11.62772     15.02791         0.160063     -0.409563      0.142991
O      13.56082     11.66320      2.48733         0.082968     -0.751278     -0.072936
O      13.55440     11.77044     14.81693         0.065246     -1.816314      0.514448
O       1.87373     11.73145      6.70466        -0.122894      0.016534     -0.164207
O      13.75971     11.62084      6.65456        -0.120187      0.949155      0.364994
O       2.02388     11.61933     10.85075        -0.294730      0.554479     -0.571118
O      13.78758     11.58605     10.70963         0.366053      0.903671      0.028352
O       5.76868      3.71723      2.62561         0.120775      0.529704     -0.777573
O       5.75419      3.94040     14.95689         0.206610      0.362636      0.030748
O       5.89972     15.60086      2.47455        -0.476299     -0.620033      0.092031
O       5.90886     15.52253     14.92813         0.210976      1.084149     -0.113587
O       5.98295      3.84344      6.73574        -0.180983     -0.461960     -0.159421
O       5.77751      0.04367      6.63513         0.211996     -0.951043     -0.029372
O       6.02572      3.85812     10.67544        -0.199299     -0.002635      0.116652
O       5.89625     15.55243     10.74272        -0.105983      0.827557      0.308530
O       5.89670      7.77293      2.46514         0.385959     -0.218227      0.353866
O       6.05784      7.83968     14.81253        -0.413613     -0.983799      0.233954
O       5.76482      7.62729      6.49962        -0.218604      1.627621      0.394963
O       5.91801      7.84027     10.64659        -0.040109     -1.144173      0.428959
O       5.67412     11.67715      2.29261        -0.182550      0.344769      0.001821
O       5.80232     11.70524     15.04045        -0.000525     -0.670571     -0.221812
O       5.87120     11.69014      6.57051         0.013255      1.273103      0.192888
O       5.82888     11.67342     10.78673         0.557835      0.573523     -0.370098
O       9.71286      3.84064      2.63043         0.361184     -0.641311     -0.375744
O       9.76782      3.89129     14.60939        -0.436300      0.084318      0.408928
O       9.58946     15.43537      2.37704         0.632209      1.215914      0.208416
O       9.56695     15.59187     14.99806         0.654677      0.013090     -0.123741
O       9.81926      3.75389      6.41313        -0.177383      1.318348      0.064393
O       9.84683     15.50817      6.78645        -0.446952      0.484666     -0.263786
O       9.74265      3.84603     10.84680         0.025337     -0.074903     -0.333429
O       9.93668     15.45802     10.68166        -0.305895      0.957929     -0.438217
O       9.70157      7.77907      2.58294        -0.350748     -0.614948     -0.224087
O       9.88448      7.82612     14.96670        -0.664069     -0.745307      0.247582
O       9.78748      7.79430      6.71262        -0.283037     -0.347937      0.156302
O       9.92767      7.86492     10.53648        -0.512688     -0.828579      0.303872
O       9.82349     11.64260      2.78422        -0.219420      0.345854     -0.837140
O       9.94531     11.56487     14.73498        -0.468648      1.643260      0.234718
O       9.48893     11.68782      6.46121         0.408227     -0.916568      0.019548
O       9.82133     11.66234     10.89350        -0.686185     -0.170230     -0.159213
