  # total energy = -7875.39373269 
CRSYTAL
PRIMVEC
    15.6080000000000005    0.0000000000000000    0.0000000000000000
     0.0000000000000000   15.6080000000000005    0.0000000000000000
     0.0000000000000000    0.0000000000000000   16.6239999999999988
PRESSURE
-0.07342 0.170278 -0.803665 -0.030837 -0.165999 0.042434
PRIMCOORD
320 1
Pb       4.02665      3.99678      4.14509        -0.531365     -0.714926     -0.052140
Pb       4.09974      4.09280      0.16406        -0.524182     -0.045932     -0.591388
Pb       3.86649      0.03443      4.00330         0.293217      0.008990     -0.387510
Pb       3.76124     15.57372     16.61239         0.030123     -0.192277     -0.072792
Pb       0.10161      3.83273      4.19073        -0.093837     -0.071216     -0.315452
Pb      15.47828      3.80097     16.60404         0.109334      0.352003      0.436931
Pb      15.55622     15.54544      4.00784        -0.110264     -0.238114      0.060324
Pb      15.48160     15.56415     16.55534         0.353750     -0.324360      0.593879
Pb       3.62718      3.75447      8.35338         0.688299      0.462365     -0.112009
Pb       3.89240      0.08671      8.28103        -0.215333     -0.682375      0.455323
Pb      15.53950      3.77803      8.29303        -0.426253      0.104678     -0.289264
Pb       0.14937     15.58468      8.21097        -1.059271     -0.273332     -0.214926
Pb       3.90475      3.93772     12.39612        -0.385470      0.163530     -0.114841
Pb       3.83722     15.39824     12.29343        -0.358180      0.091502      0.859159
Pb      15.59204      3.78573     12.44204         0.279564      0.267503     -0.105463
Pb      15.56959      0.32493     12.63424         0.030136     -0.844180     -0.365257
Pb       3.79621      7.87088      4.32560        -0.232426     -0.122190     -0.724033
Pb       3.80971      7.74354     16.62014         0.296337     -0.173404     -0.424299
Pb       0.25284      7.91222      4.26921        -0.787802      0.105763     -0.639041
Pb       0.04177      7.73064      0.00612        -0.172922      0.410026      0.231474
Pb       4.06559      7.66056      8.12543        -1.134103      0.461781      0.427171
Pb      15.37040      7.74053      8.61496         0.052591      0.310729     -0.794861
Pb       3.92630      7.90081     12.42582        -0.279284     -0.616445      0.196125
Pb      15.58268      7.99646     12.61662         0.232457     -0.236391      0.089678
Pb       3.81828     11.66995      4.07146         0.200204      0.213266      0.347769
Pb       3.92383     11.61834     16.45313        -0.509475      0.297837     -0.402279
Pb      15.58614     11.67165      4.04845        -0.416012     -0.269124      0.607560
Pb      15.53294     11.85555     16.56228         0.207914     -0.658921     -0.119492
Pb       3.83779     11.62853      8.03517         0.196039      0.644194      0.856609
Pb      15.58057     11.60263      8.33147        -0.612148      0.276577     -0.462428
Pb       4.06108     11.67817     12.26919        -0.750408      0.015524      1.064985
Pb       0.24096     11.52139     12.29499        -1.078119      0.784119      0.788545
Pb       7.85710      3.70742      4.20055        -0.025053      0.201652      0.513825
Pb       7.84328      4.00791      0.12569        -0.090784     -0.040914     -0.842942
Pb       7.76234     15.40909      3.98522         0.383500      0.541287      0.376202
Pb       7.90954      0.19147      0.13180         0.152647     -0.585848     -0.590411
Pb       7.55080      3.97899      8.36516         0.577478     -0.138591     -0.504579
Pb       7.89157     15.50709      8.33878        -0.346279      0.346074     -0.203574
Pb       7.63657      3.75335     12.41458         0.804206      0.710959     -0.118444
Pb       7.63303     15.56503     12.57192         0.551741     -0.630587     -0.075957
Pb       7.68432      7.86316      4.15552         0.868284     -0.034286      0.489248
Pb       7.81890      8.03841     16.58304        -0.582908     -0.710106     -0.096617
Pb       7.82436      7.75447      8.25570         0.006882      0.131947      0.022948
Pb       7.82705      7.54243     12.35439         0.237877      0.835010      0.061653
Pb       8.01796     11.69236      4.34511        -0.317552      0.450452     -0.678234
Pb       7.62106     11.69299      0.01110         0.344551     -0.116964     -0.087860
Pb       7.60266     11.74390      8.07881        -0.128675      0.243066      0.691837
Pb       7.66293     11.45312     12.39597         0.634797      0.631854      0.131830
Pb      11.81244      3.91336      4.40779         0.004484      0.213882     -0.528220
Pb      11.83773      4.09747      0.15239        -0.081839     -0.313154     -0.024658
Pb      11.51367     15.46015      4.18852        -0.276197     -0.208941     -0.385801
Pb      11.55228     15.50043      0.10516         0.407166      0.293563     -0.905358
Pb      11.76841      4.13547      8.43048        -0.075868     -0.089790     -0.194841
Pb      11.61918      0.14573      8.25171         0.320632     -0.327332      0.519186
Pb      11.85560      3.81488     12.65723        -0.089707     -0.312269     -0.460256
Pb      11.87956     15.53014     12.42126        -0.781633      0.236908      0.522796
Pb      11.73496      7.43877      4.02581         0.320701      1.747379      0.911929
Pb      11.37544      7.77764      0.03318         0.671877      0.358050     -0.297422
Pb      11.51595      7.96809      8.24527         0.842969     -0.480163      0.013233
Pb      11.47893      7.91027     12.70509         0.162263      0.457022     -0.540420
Pb      11.63144     11.24769      4.29430         0.560919      0.818053     -0.366710
Pb      11.82061     11.80825     16.50069        -0.710117     -0.507629      0.338101
Pb      12.06833     11.99996      8.46186        -0.444514     -1.396252     -0.250220
Pb      11.60283     11.91210     12.40627         0.407586     -0.424856     -0.480934
Ti       1.78797      1.81783      2.13141         1.134029     -0.029052      0.286533
Ti       1.97557      1.97562     14.74611         0.408823     -1.116402     -0.329705
Ti       1.89957     13.49311      2.15597         0.102016      1.879608      0.311597
Ti       1.89250     13.67702     14.50634         1.378919     -0.919570     -0.674865
Ti      13.52350      1.91839      2.21532        -0.188405     -0.212896     -1.175953
Ti      13.57883      1.97358     14.87665        -1.384421     -1.497484     -0.121427
Ti      13.52897     13.58713      2.27310         0.021665     -0.420113     -0.371461
Ti      13.67258     13.60193     14.65137        -0.777619      1.193459     -0.917765
Ti       1.89833      1.93261      6.34382        -0.203555      0.622518     -0.862258
Ti       1.93766     13.75825      6.09310        -0.559204     -1.470368      0.813785
Ti      13.59958      1.87285      6.27123         1.798457     -0.024349      0.056295
Ti      13.70635     13.64831      6.17106         0.133814     -0.285763      0.562702
Ti       1.94796      1.91181     10.52570        -0.296834      0.021256      0.762293
Ti       1.95627     13.51062     10.38046        -0.089070      0.584088      2.355710
Ti      13.57921      1.92672     10.47109         0.405751      0.198559     -0.657868
Ti      13.75175     13.72906     10.50708         0.571346     -1.686531      1.069897
Ti       2.05181      5.70611      2.23496        -0.580142      1.001523      0.052915
Ti       1.81325      5.69653     14.74502         1.168755      1.287912      0.537282
Ti      13.84161      5.82843      2.17664        -0.461812      1.091063     -0.024343
Ti      13.53740      5.96261     14.67444         0.469235      0.129042     -0.796277
Ti       1.85891      5.88359      6.30792         0.029488      0.296008      0.680000
Ti      13.67586      5.87497      6.30313        -0.512936      0.202243      0.220444
Ti       2.01582      5.87951     10.44080         0.691617     -0.718464     -0.432977
Ti      13.83279      5.79972     10.61842        -1.597242     -0.187681     -0.388618
Ti       1.92998      9.74530      2.15785        -0.855196     -1.141914     -0.111647
Ti       1.96736      9.64616     14.60776        -0.925721      0.852478      0.144157
Ti      13.64612      9.70494      2.19254         0.221549     -0.519770      0.401446
Ti      13.62496      9.74966     14.61083         0.127736      0.140496      1.065441
Ti       1.78041      9.77983      6.45917         0.915859     -0.452136     -0.818275
Ti      13.65572      9.63483      6.25779        -0.771561      1.231144      0.164315
Ti       2.01365      9.67152     10.40226         0.036012     -0.227620      0.710513
Ti      13.49121      9.61457     10.69006        -0.064491      1.990483     -1.245640
Ti       5.82488      2.02801      2.11749        -0.417864     -1.472156     -0.155747
Ti       5.88423      2.02493     14.61271        -0.398234     -0.286031      1.289148
Ti       5.83319     13.52399      2.15681         0.121851      1.327252     -0.115292
Ti       5.94390     13.79670     14.86462        -0.975796     -1.651770     -1.684188
Ti       5.84715      1.84911      6.40488         0.395895      1.252768     -0.588713
Ti       5.70713     13.79818      6.31579         0.720017     -1.547980      1.337495
Ti       5.85443      1.87532     10.52030        -1.277718     -0.132871     -0.029870
Ti       5.91586     13.58175     10.53576        -1.007695     -0.242078     -2.508322
Ti       6.01584      5.85471      2.33339        -0.979614      0.846939     -0.360741
Ti       5.87437      5.77514     14.63648        -0.574501      1.962691     -0.422990
Ti       5.76367      5.79438      6.23169         0.204336     -0.119418      0.764079
Ti       5.92798      5.87728     10.52206        -0.673697     -0.497418      0.484716
Ti       5.76895      9.75519      2.28889         0.191654     -0.176596     -1.270395
Ti       5.81920      9.65982     14.62862         0.125760      0.141329      1.170347
Ti       5.79270      9.70315      6.24837        -0.255157      1.184829      0.529357
Ti       5.89185      9.62798     10.40279        -0.266050      0.617258     -0.951041
Ti       9.76774      2.06467      2.16613        -0.328815     -1.467913      0.631398
Ti       9.70728      2.06734     14.64503         1.213701     -1.947151     -0.218910
Ti       9.78377     13.52386      2.17392        -0.781305      0.226039     -0.188377
Ti       9.66443     13.63964     14.64233         0.596374      1.138852     -0.236431
Ti       9.81260      1.87917      6.30871        -1.249507      0.395990      0.245724
Ti       9.85123     13.58850      6.48321        -0.492314      0.508867     -1.501511
Ti       9.63539      1.92109     10.57040         1.646746      0.205725     -0.864167
Ti       9.67414     13.64960     10.37667         0.490711     -0.156606      1.291422
Ti       9.75089      5.78650      2.28557         0.454033      1.128632      1.450314
Ti       9.64417      5.85300     14.50255         0.353461      0.059775      0.893937
Ti       9.66566      5.77439      6.34743         0.852679     -0.370973     -0.003092
Ti       9.94763      5.72366     10.47479        -1.923906      0.807809     -0.626116
Ti       9.63369      9.63599      2.26325         0.802215      0.797376     -0.131042
Ti       9.72615      9.90331     14.63680         0.074485     -1.214615     -0.606553
Ti       9.70631      9.74304      6.36891         0.883462     -0.019942     -0.035703
Ti       9.73134      9.74754     10.30048         0.636822     -0.012382      0.794225
O       1.89875      1.58131      0.38652         0.051993      0.701461     -0.134893
O       1.77214      1.97115     12.90632         0.205218      0.249107      0.802565
O       1.73559     13.59870      0.40115         0.495215     -0.094290     -0.527838
O       2.05752     13.60365     12.68182        -0.424871      0.361399      1.365539
O      13.40448      1.93859      0.32187         0.470468      0.363901      1.400593
O      13.60659      1.90104     13.04575         0.550436     -0.195457     -0.739666
O      13.44928     13.41520      0.41399         0.688691     -0.003362      0.203723
O      13.65681     13.80328     12.85844        -0.056925     -0.262949      0.410815
O       1.85339      1.99602      4.57339        -0.005484     -0.010495     -0.847801
O       1.99353     13.65933      4.32542         0.023395     -0.095103      0.932947
O      13.68381      1.94123      4.46039        -0.229268      0.009571     -0.503276
O      13.53984     13.66567      4.40724         0.256090      0.029672      0.278145
O       1.86834      2.10603      8.73155        -0.034480     -0.447989     -0.361008
O       1.89967     13.71404      8.67511        -0.165630     -0.289876     -1.060507
O      13.64997      1.94320      8.65421        -0.250187     -0.031947      0.626725
O      13.77946     13.55921      8.72700         0.185627      0.342169     -0.680213
O       2.09361      5.94251      0.47864        -0.240714     -0.145145     -0.982787
O       1.96329      5.73058     13.02887        -0.283078     -0.217375     -0.759945
O      13.58971      6.08227      0.37587        -0.170148     -1.080053     -0.490823
O      13.62541      5.67188     12.84120        -0.014674      0.338537      0.309445
O       1.75558      5.83424      4.49268         0.307377     -0.700694     -0.026557
O      13.57049      5.74776      4.50456         0.516114     -0.441108     -0.107055
O       2.22248      5.71155      8.64304        -0.896257      0.372966      0.271900
O      13.70102      5.79175      8.76696        -0.065117      0.147640      0.193102
O       1.89372      9.66959      0.35823        -0.059508      0.146426      0.342932
O       1.97674      9.49244     12.80780        -0.192813      0.134647     -0.360975
O      13.77002      9.67615      0.39642        -0.468546      0.064605      0.137188
O      13.58312      9.76766     12.86532        -0.231299     -0.396808     -1.555576
O       1.78979      9.79924      4.63932         0.417653     -0.488089     -0.087295
O      13.80129      9.81277      4.50949        -0.342234     -0.171992      0.165362
O       1.93024      9.86283      8.65990        -0.321759     -0.495833     -0.701567
O      13.52883      9.70777      8.80937         0.300721     -0.363988      0.577093
O       5.83842      2.12880      0.29671         0.398683     -0.380534      1.125453
O       5.84369      2.00937     12.82407         0.379462     -0.282550      0.000278
O       5.99130     13.65921      0.33788        -0.512091     -0.545459      0.203530
O       5.90057     13.64377     12.98631         0.106837     -0.256004      0.158142
O       5.76442      1.81859      4.62545        -0.142993      0.518280     -0.043381
O       5.74078     13.67918      4.57767         0.042264      0.026221     -0.746097
O       5.75312      1.81724      8.76195         0.170396      0.184580     -0.709141
O       5.79835     13.60208      8.67973        -0.115887      0.317246      1.296969
O       5.95742      5.72806      0.51285         0.081615      0.280067      0.248190
O       5.92399      5.76889     12.80456        -0.010104      0.035788      0.261213
O       5.74787      5.71167      4.49155         0.409690     -0.043676     -0.617291
O       5.83744      5.95294      8.74312         0.190711     -0.235231     -0.756019
O       5.88884      9.65919      0.40461        -0.760060      0.025956      1.272034
O       5.93815      9.75593     12.85045        -0.040321     -0.459225     -0.372029
O       5.70659      9.87759      4.45920         0.250797     -0.493290      0.360476
O       5.86103      9.63488      8.60809        -0.242611     -0.285622      0.561528
O       9.53199      2.04595      0.37702         0.710817      0.186812      0.356236
O       9.69976      1.89157     12.86577        -0.327795      0.161637     -0.893664
O       9.66487     13.62246      0.35199         0.387655     -0.142262      0.929943
O       9.67371     13.64234     12.81138        -0.083539     -0.123126      0.345588
O       9.80999      1.72254      4.53761        -0.167949      0.735665      0.109143
O       9.64307     13.78257      4.59384         0.281035     -0.375199      1.090181
O      10.00148      1.94000      8.76098        -0.605303      0.022338      0.418164
O       9.79571     13.70159      8.59887        -0.135239     -0.357617     -0.348656
O       9.72256      5.85152      0.54963        -0.249021     -0.206266     -1.832748
O       9.75646      5.80239     12.73594        -0.050244      0.404538     -0.402976
O       9.82205      5.79678      4.54704         0.245038      0.098259      0.758204
O       9.86723      5.68819      8.59964        -0.454939     -0.115800      0.178987
O       9.71645      9.58518      0.43782        -0.108910      0.246514      0.362848
O       9.64663      9.84190     12.80281         0.026840     -0.391523      0.764025
O       9.57617      9.74948      4.54294         0.071328      0.303021     -0.167534
O       9.90043      9.72920      8.51286        -0.384993      0.182240      0.168150
O       3.89910      1.82431      2.42829         0.513900      0.399619     -0.084319
O       3.93099      2.01789     14.88238        -0.372030     -0.713304      0.168301
O       3.89791     13.50338      2.35760        -0.221227      0.473159     -0.067571
O       3.80306     13.79713     15.02375         0.446659     -0.250945      0.193262
O      15.47477      1.81228      2.39146         0.749925      0.315273     -0.037723
O      15.49737      1.88944     15.16178         0.590067      0.295003     -0.582648
O      15.49841     13.59426      2.52145         0.046642     -0.079684     -0.334285
O       0.00933     13.60133     14.93712        -0.525474     -0.350213     -0.101823
O       3.78824      2.00942      6.75097         0.332468     -0.283797     -0.167874
O       3.76560     13.63958      6.67127         0.345651      0.103770     -0.499465
O      15.59372      1.80187      6.65552         0.046962      0.545058      0.216294
O      15.60211     13.65498      6.38981         0.466859      0.139176      0.324743
O       3.88589      1.87793     10.78822        -0.318048      0.534005      0.067849
O       3.97705     13.46992     10.79708        -1.202736      0.468883     -0.198332
O      15.52145      1.93534     10.84237         1.127630     -0.101743      0.207977
O       0.08007     13.41490     10.79193         0.132277      0.462303     -0.503317
O       3.91299      5.81464      2.47963         0.759592     -0.550950      0.543238
O       3.91737      5.82940     14.99394        -0.429988     -0.296989      0.351088
O       0.10208      5.67360      2.22511        -0.881454      0.118246      0.645809
O      15.51973      5.92897     15.04105        -0.094100     -1.231885     -0.018452
O       3.85758      5.96039      6.34350         0.065519     -0.684687      0.545977
O      15.53909      6.08711      6.70982         0.200811     -0.642326     -0.041681
O       3.88224      5.85283     10.86523         0.601691     -0.498401      0.211051
O       0.04515      5.81007     10.62695         0.543027      0.385365      0.481808
O       3.78668      9.81213      2.54264         0.737932     -0.351752     -0.089302
O       3.79697      9.61578     14.90826         1.323839     -0.253816      0.236456
O       0.01802      9.73649      2.66867         0.213749      0.003879     -1.184085
O      15.50749      9.73705     14.69281         0.845751     -0.234540      0.604055
O       3.83156      9.75200      6.65435         0.409454     -0.414580     -0.428977
O      15.52395      9.51522      6.75658         0.373570      0.328832      0.317965
O       3.93850      9.65039     10.80432        -0.040208     -0.036326     -0.290430
O      15.58905      9.65190     10.87999         0.533371     -0.229560     -0.486176
O       7.81619      2.02458      2.56298        -0.577609     -0.413497     -0.534898
O       7.83079      2.02284     14.93884        -1.556152      0.165789      0.020077
O       7.78653     13.56568      2.62155        -0.142653     -0.414626     -0.594091
O       7.77604     13.45398     15.00622         0.045745      0.258305     -0.235338
O       7.74983      1.83316      6.61166        -0.319485      0.344185      0.338907
O       7.63308     13.83223      6.78221         0.405056     -0.865817     -0.910433
O       7.71388      1.72741     10.72045         0.429372      0.250507      0.375130
O       7.77262     13.55894     10.63103         0.960867     -0.033375      0.363766
O       7.84340      5.85686      2.87193        -0.328102     -0.406906     -1.228652
O       7.79393      5.88411     14.89860         0.251404     -0.419149      0.077480
O       7.79419      5.87426      6.63600        -0.551541     -0.107351      0.015601
O       7.82854      5.86407     10.77273        -1.001757     -0.144275     -0.358269
O       7.66331      9.69101      2.47198         0.991586     -0.105995      0.378578
O       7.72531      9.77002     15.01211         0.255959      0.123869     -0.251754
O       7.72663      9.85014      6.56358        -0.134465     -0.553217      0.018426
O       7.85536      9.55285     10.47685        -0.719057      0.394538      0.860760
O      11.61558      2.00952      2.38967         0.422164     -0.018339      0.320462
O      11.62742      1.71714     14.91254        -0.003045      0.844200      0.295103
O      11.62077     13.52431      2.58981        -0.019408      0.157297     -0.469233
O      11.62353     13.66592     14.86237         0.195038     -0.541954      0.327040
O      11.77993      1.67732      6.43866        -1.320252      0.938711      0.340186
O      11.71243     13.64016      6.60291         0.014783      0.126554      0.073484
O      11.72769      2.06014     10.94973        -0.114482     -0.621746     -0.386756
O      11.82165     13.69321     10.77176        -1.095528     -0.127636     -0.144632
O      11.74675      5.88864      2.41274        -0.738441     -0.801344     -0.179211
O      11.62914      6.00431     14.82664        -0.361345     -0.742630      0.591933
O      11.75708      5.74575      6.64209        -0.571465     -0.223512     -0.178314
O      11.69991      5.51230     10.62337         1.168196     -0.061250      0.655689
O      11.65627      9.58407      2.70115         0.147800     -0.022670     -0.975263
O      11.64313      9.69669     14.89996        -0.508424      0.006184      0.076376
O      11.68583      9.85043      6.41871        -0.948978     -0.228682      0.192976
O      11.61730      9.56493     10.89479         0.004901      0.362956     -0.088936
O       2.00723      3.76156      2.37298        -0.347511     -0.048628      0.216379
O       1.90346      3.74452     15.33844        -0.363365      1.352428     -0.844550
O       1.87235     15.48381      2.54946         0.287093      1.142374     -0.212935
O       1.77646     15.58722     14.89098         0.442208      0.293909     -0.090454
O      13.62928      3.87257      2.33422        -0.130697     -0.272259      0.179176
O      13.51861      3.83839     15.00425        -0.055902      1.294847      0.343789
O      13.47771     15.48695      2.20262         0.174911      0.974809      0.897185
O      13.62504     15.44658     15.18831        -0.066121      0.477561     -0.606828
O       1.78794      3.90710      6.62450         0.116609      0.292593     -0.067169
O       1.92579     15.60798      6.44542         0.148955     -0.143414      0.590189
O      13.73709      3.83278      6.51741        -0.047813      0.209812      0.136483
O      13.71595     15.53507      6.57832        -0.057703     -0.103672      0.038446
O       1.93945      3.92410     10.93562         0.118416     -0.454317     -0.410619
O       1.97870      0.04506     10.70404        -0.228324     -0.780745     -0.027609
O      13.82454      3.81200     10.84849        -0.593811      0.583381     -0.048232
O      13.77278     15.57862     10.77489        -0.285674      0.936537      0.105061
O       2.01328      7.79141      2.60950        -0.331696      0.263665     -0.145025
O       1.76374      7.72997     14.93017         0.617179     -0.209832      0.386446
O      13.79162      7.71715      2.60653        -0.081314      0.017648     -0.220223
O      13.51946      7.81424     14.70756         0.549295     -0.634972      0.295913
O       2.00753      7.74918      6.52368        -0.159208      0.345786      0.249424
O      13.38172      7.82762      6.42177         0.620301     -1.473537      0.665021
O       2.03975      7.75280     10.61077        -0.509875      0.040680      0.284512
O      13.58983      7.74551     10.85715         0.430956     -1.204119      0.233151
O       1.90227     11.69673      2.50989        -0.176810     -1.288282     -0.194494
O       2.05230     11.63254     14.71190        -0.499492      0.333730      0.698582
O      13.59445     11.56721      2.56018         0.012928      0.392680     -0.475798
O      13.58677     11.68813     14.91288         0.022552      0.057687      0.241035
O       1.83460     11.66873      6.49423        -0.012896      0.614183      0.668483
O      13.67500     11.63916      6.66960         0.381271      0.957255      0.102179
O       2.04502     11.55116     10.81834        -0.089882      0.568851     -0.512784
O      13.58025     11.66816     10.85589        -0.084769     -0.152330     -0.148894
O       5.94594      3.91368      2.47577        -0.554957     -1.007521      0.428843
O       5.84263      3.98339     14.94247         0.316341     -1.935987      0.119467
O       5.84838     15.48510      2.37207         0.019375      0.980617      0.204500
O       6.09561     15.60100     14.94727        -0.534510      1.506757     -0.013000
O       5.75782      3.97073      6.61999         0.344721     -0.987306      0.450018
O       5.61267      0.02456      6.75511         0.173043     -0.098763     -0.478229
O       5.90483      3.83161     10.71508        -0.000248      0.093545     -0.021847
O       5.70413     15.40455     10.98377         1.033039      1.674829     -0.800308
O       5.84806      7.71344      2.78149        -0.562847      0.672321     -0.986753
O       5.79654      7.72140     15.05393         0.238251      0.671453     -0.507693
O       5.77063      7.80653      6.51745         0.597925     -0.314575     -0.234712
O       5.77276      7.74938     10.91601         0.678290      0.113476     -0.435683
O       5.76844     11.63629      2.41928         0.202979      0.035732      0.033266
O       5.73072     11.59723     14.98287        -0.007728     -0.025596      0.240482
O       5.72625     11.66974      6.68365         0.352813      0.405308     -0.639964
O       5.84001     11.55664     10.73736         0.697489     -0.032438      0.152946
O       9.76370      3.94406      2.59100        -0.272554     -1.086301     -0.095915
O       9.72089      3.92561     14.81066         0.386709      0.983739      0.524209
O       9.78938     15.57190      2.45046        -0.357785      0.286451     -0.393414
O       9.64321     15.59085     14.99723        -0.714361     -0.602315      0.286045
O       9.62589      3.82950      6.44943         0.546864     -0.206647      0.263144
O       9.71715      0.01654      6.76669         0.342938     -0.266317     -0.006698
O       9.46972      3.81528     10.74372         0.255144     -0.325193      0.065961
O       9.67114     15.49427     10.61000         0.319691      0.715341      0.540533
O       9.68308      7.77681      2.55639        -0.242662     -0.296029     -0.016833
O       9.58853      7.83356     14.87750         0.670547     -0.550168     -0.016156
O       9.67846      7.85476      6.68236         0.115345     -0.819216     -0.235292
O       9.78562      7.69182     10.51382         0.171850     -0.227793      0.676364
O       9.72660     11.63696      2.48187        -0.384605     -0.548778      0.355280
O       9.69573     11.68336     14.96289         0.114060      0.320305      0.042578
O       9.63187     11.74302      6.55508        -0.261512      0.055788     -0.124512
O       9.83839     11.62448     10.63323        -0.195432      0.552922      0.154272
