  # total energy = -7875.71709345 
CRSYTAL
PRIMVEC
    15.6080000000000005    0.0000000000000000    0.0000000000000000
     0.0000000000000000   15.6080000000000005    0.0000000000000000
     0.0000000000000000    0.0000000000000000   16.6239999999999988
PRESSURE
-0.114748 -0.62142 -0.699311 -0.286159 0.197863 -0.064669
PRIMCOORD
320 1
Pb       4.02629      3.93996      4.11434        -0.717279     -0.408920      0.615413
Pb       4.09550      4.05974      0.16543        -0.009713      0.093034     -0.476051
Pb       3.88646      0.03676      3.97167         0.125060     -0.328397      0.743872
Pb       3.76023     15.57318     16.59636         0.632576     -0.067608      0.035887
Pb       0.09755      3.82308      4.20171        -0.400386      0.715980     -0.724711
Pb      15.52000      3.79707     16.59447        -0.473966     -0.274396      0.219839
Pb      15.56783     15.51644      4.01498        -0.464716     -0.129497     -0.521712
Pb      15.52199     15.56765     16.55830        -0.131834      0.191775      0.057407
Pb       3.63113      3.72973      8.34489         0.255018      0.163927     -0.616073
Pb       3.87913      0.06865      8.23925        -0.226937     -0.270494     -0.317115
Pb      15.50185      3.78631      8.30069         0.142566      0.094394     -0.469372
Pb       0.09773     15.57767      8.21947        -0.373592      0.015805      0.186203
Pb       3.85781      3.92152     12.44466        -0.209188     -0.288774      0.059321
Pb       3.83334     15.42239     12.37051         0.083132      0.221941      0.057764
Pb       0.01366      3.86105     12.47264         0.652377      0.078180      0.659022
Pb       0.00229      0.29456     12.67963        -0.041855     -0.381922     -0.366044
Pb       3.78849      7.89139      4.25521         0.370888     -0.286545     -0.429925
Pb       3.82630      7.74269     16.57533         0.280083      0.182599      0.237068
Pb       0.19414      7.90703      4.26728        -0.842911     -0.437959     -0.517724
Pb       0.03907      7.74157     16.60634        -0.705575      0.085206     -0.154856
Pb       3.97189      7.65439      8.21631         0.381857      0.533201     -0.678310
Pb      15.31837      7.72796      8.64206         0.451375      0.048400     -0.846211
Pb       3.92564      7.86886     12.41164         0.218182      0.035943      0.339604
Pb      15.55510      7.98491     12.61814        -0.023361     -0.790188     -0.510862
Pb       3.81474     11.68343      4.05779        -0.020130      0.335898     -0.493025
Pb       3.88591     11.66648     16.47359        -0.045123     -0.243757      0.802758
Pb      15.56128     11.67622      4.04025         0.123006     -0.205385     -0.351690
Pb      15.54352     11.84689     16.56792        -0.063707     -0.939157      0.100261
Pb       3.83982     11.67344      8.06104        -0.379627      0.799100      1.022513
Pb      15.58943     11.60580      8.29389         0.164160      0.128986      0.221982
Pb       4.02346     11.64805     12.28405        -0.260357      0.187790      0.255913
Pb       0.22800     11.57353     12.34002        -0.506851      0.298719      0.109204
Pb       7.82827      3.67198      4.20480         0.148820      0.428106     -0.672994
Pb       7.81883      4.00018      0.07725         0.456448      0.062420     -0.620120
Pb       7.73156     15.42777      4.01179        -0.130647      0.398982      0.493730
Pb       7.88245      0.18774      0.11653         0.044770      0.137354     -0.497913
Pb       7.56395      3.94640      8.37451         0.844312     -0.179169      0.699468
Pb       7.90535     15.53785      8.29954        -0.813442      0.389848      0.418787
Pb       7.67411      3.72310     12.42980         0.483949      0.224337     -0.145318
Pb       7.63927     15.55038     12.55978         0.103840      0.226812     -0.570310
Pb       7.71725      7.85248      4.16608         0.335069     -0.249074      0.263605
Pb       7.73172      7.98163     16.57230         0.161888     -0.953524      0.386412
Pb       7.83770      7.73489      8.23341        -0.262408      0.075492     -0.210602
Pb       7.79485      7.57449     12.40188        -0.138516      0.626404      0.145571
Pb       7.99134     11.72342      4.30712        -0.707425     -0.024336      0.067612
Pb       7.60170     11.72068     16.59687         0.758202      0.539690      0.212242
Pb       7.63712     11.75520      8.12050         0.841216     -0.212082      0.630209
Pb       7.69263     11.47163     12.39088         0.512540      0.787646      0.180130
Pb      11.86434      3.86117      4.41591        -0.641583      0.031002     -0.758689
Pb      11.81674      4.08994      0.19054        -0.373701     -0.279727     -0.256355
Pb      11.54377     15.44124      4.18789         0.222673      0.282927     -0.634500
Pb      11.57293     15.49171      0.05566        -0.568835      0.595173      0.210412
Pb      11.74656      4.16208      8.46456         0.207625     -0.883576     -0.240859
Pb      11.62578      0.16355      8.28783         0.930804      0.105482      0.448175
Pb      11.83114      3.81429     12.66072        -0.301200      0.129228     -0.432196
Pb      11.77450     15.56233     12.44198        -0.183375      0.517834     -0.727955
Pb      11.76371      7.55416      4.10311        -0.342724      0.279151      0.146681
Pb      11.44268      7.79287      0.02850         0.503540      0.268234      0.039922
Pb      11.55759      7.92368      8.29728         0.211843     -0.379304     -0.369757
Pb      11.43888      7.97077     12.70408         0.448595      0.037865     -0.422372
Pb      11.71954     11.26521      4.27653         0.325683      0.504894     -0.587646
Pb      11.77992     11.77967     16.51121        -0.676498     -0.929825      0.140142
Pb      12.01224     11.98093      8.51330        -0.183254      0.052900     -0.230175
Pb      11.57457     11.91831     12.38701        -0.067068     -0.759124      0.297899
Ti       1.81752      1.85641      2.09900         0.496160      0.882785      0.645116
Ti       1.99949      1.84056     14.87004        -1.003786      1.468205     -1.557048
Ti       1.89844     13.63122      2.12780        -0.352219     -1.180856      0.196805
Ti       1.95699     13.55185     14.71704        -0.470839      0.188781     -0.813643
Ti      13.47173      1.89209      2.09162         0.368523      0.594363      0.303667
Ti      13.40642      1.87793     14.85517         1.341527      1.593142     -0.365330
Ti      13.50241     13.52736      2.12981         0.022462      0.284594      1.439369
Ti      13.56468     13.70690     14.62113         0.845249     -0.979017      0.016337
Ti       1.85622      2.04516      6.14638         1.111630     -0.492230      1.655713
Ti       1.90596     13.77721      6.21082         0.979429     -0.566726     -0.538853
Ti      13.69761      1.83864      6.19815        -1.040399      0.797265      0.865693
Ti      13.66627     13.65906      6.21107         0.142180     -0.053981      0.396313
Ti       1.93306      1.91659     10.54472         0.459263     -0.479916     -1.517168
Ti       1.94008     13.55841     10.50077        -0.384521      0.909670     -0.268890
Ti      13.61848      1.90184     10.45806         0.213628     -1.487542      0.171853
Ti      13.79418     13.58484     10.66113         0.177318      1.250948     -0.688397
Ti       2.02379      5.71791      2.16456        -0.529606      0.362165      1.557060
Ti       1.89844      5.73174     14.85787        -0.047628      0.038351     -0.534858
Ti      13.78179      5.87539      2.19017        -0.366554     -0.950298     -0.323832
Ti      13.60052      5.92160     14.58650        -0.139380     -0.380433      1.826211
Ti       1.93965      5.95127      6.27875        -0.217442     -1.285221     -0.375469
Ti      13.70597      5.77428      6.33659         0.562475      0.069785      0.008916
Ti       2.22258      5.86141     10.31349        -2.233243     -0.278895      1.070757
Ti      13.79447      5.71629     10.61175         0.063420      0.985787     -0.274187
Ti       1.86651      9.61110      2.05657         0.155772      1.028471      0.663580
Ti       1.87906      9.67878     14.60898         1.198512     -0.068192      0.455527
Ti      13.64098      9.63505      2.07887         0.045043      0.682635     -0.753313
Ti      13.59331      9.78512     14.52317        -0.449236      0.021807      1.550440
Ti       1.89163      9.83129      6.36214        -0.715049     -0.749074      0.587629
Ti      13.61881      9.68357      6.40983         0.515215     -0.449641      0.038370
Ti       2.01267      9.60765     10.47462        -0.299776      0.571311     -0.892195
Ti      13.50218      9.68536     10.56401         0.680522      0.003888      0.258370
Ti       5.78838      1.89347      2.13940         0.557561      0.898966     -0.631296
Ti       5.85584      2.04143     14.67217         0.674822     -0.037334     -0.384194
Ti       5.78440     13.71203      2.09802        -0.063481     -1.608496      0.210801
Ti       5.86739     13.76348     14.73374         0.714294     -0.151839     -0.506453
Ti       5.84462      2.00737      6.42175        -0.689604     -2.112795     -0.084635
Ti       5.83385     13.77403      6.40330        -1.065016      0.526712     -1.307485
Ti       5.79650      1.83369     10.46091         0.740920      0.287659      1.464505
Ti       5.88592     13.61661     10.39416        -0.044225      0.924796     -0.568298
Ti       5.93843      5.87097      2.42730        -0.054354      0.242427     -1.170716
Ti       5.83562      5.97333     14.57597         0.868590     -1.372924     -0.285574
Ti       5.86705      5.81353      6.33984        -0.543843      0.701395      0.678047
Ti       5.93153      5.82760     10.49076         0.171742     -0.428154     -0.593966
Ti       5.73308      9.80588      2.14477        -0.056979     -0.206854      0.486904
Ti       5.75918      9.76448     14.69443         0.353749     -0.505112     -0.503059
Ti       5.78520      9.89819      6.30537         0.535671     -1.715648     -0.126383
Ti       5.88764      9.70697     10.42421        -0.053886     -0.554998     -0.371863
Ti       9.71308      1.89463      2.27617         0.781824      1.198835     -1.750830
Ti       9.68031      1.99309     14.55722        -0.198853      0.680436      1.578654
Ti       9.63704     13.56567      2.20193         1.315946     -0.074884     -1.192427
Ti       9.68781     13.72604     14.58019        -0.536780     -0.778317      0.765147
Ti       9.71186      1.83519      6.31880         0.981916      1.123367      0.026335
Ti       9.78692     13.63379      6.42898         0.080657     -1.152765      0.406166
Ti       9.72807      1.94676     10.47077        -0.416120      0.215992      0.610145
Ti       9.72954     13.66058     10.41295        -0.263095     -0.225787      1.042979
Ti       9.76592      5.82333      2.28626        -0.295123     -0.850728     -0.211287
Ti       9.72733      5.89846     14.46211        -0.452642     -1.474742      0.136322
Ti       9.77397      5.64920      6.36559         0.079710      1.645498     -1.293915
Ti       9.83694      5.87814     10.37710        -0.033388     -0.655564      1.680608
Ti       9.61728      9.70726      2.34018         1.569004     -0.314563     -1.620437
Ti       9.63273      9.81707     14.63670         1.213837      0.354904     -0.599712
Ti       9.69013      9.67606      6.40797         0.145952      0.082968      0.699411
Ti       9.73904      9.76274     10.35525        -0.491707      0.386894      1.350899
O       1.96328      1.64387      0.31984        -0.092562      0.382808     -0.275717
O       1.80519      2.12664     12.99979         0.331011     -0.498291      0.477080
O       1.72286     13.63129      0.31408         0.447041      0.160390     -0.014310
O       2.00536     13.71818     12.94256         0.289561     -0.681381      0.161425
O      13.34961      1.87803      0.28756         0.469960     -0.231091      0.561576
O      13.66707      1.75430     13.05262        -0.282643      0.310167     -1.019464
O      13.76725     13.36544      0.38091        -0.700476      0.870361     -0.934141
O      13.58665     13.77342     12.83650        -0.289762     -0.306105      0.262452
O       1.85477      1.87760      4.37861         0.144916      0.275531     -0.107983
O       2.02837     13.55729      4.37811        -0.116157      0.284660      1.077693
O      13.67150      2.11585      4.41529         0.255505     -0.746639     -0.066521
O      13.50043     13.69905      4.44903         0.175087     -0.276743      0.181355
O       1.86346      1.96153      8.64874         0.181677      0.052724      1.532131
O       1.74152     13.52347      8.75078         0.205314      0.512818     -0.677951
O      13.71097      1.92622      8.67138         0.067504      0.114613      0.329834
O      13.85853     13.58337      8.85621        -0.347630     -0.233844     -0.980179
O       2.14312      5.85802      0.41061         0.000522      0.218085     -0.700671
O       1.74582      5.53567     13.12597         0.667385      0.496144     -0.759088
O      13.40766      5.99542      0.42088         0.510373      0.172360      0.008383
O      13.76289      5.77837     12.84097        -0.117506     -0.375785     -1.021023
O       1.91428      5.66756      4.45761        -0.363918      0.685467      0.651242
O      13.80632      5.58911      4.52376        -0.399279      0.554609     -0.125145
O       2.21300      6.03468      8.55650        -0.234576     -0.611506      0.123484
O      13.72106      5.60291      8.73308        -0.270276      0.522526      0.978731
O       1.94080      9.62450      0.29800         0.130517     -0.100193      0.059646
O       2.15633      9.66817     12.81415        -0.367987      0.073057     -0.074671
O      13.80946      9.75538      0.28567        -0.446574     -0.417482      0.344107
O      13.62787      9.71842     12.75601         0.331453      0.058707     -0.924250
O       1.87245      9.76378      4.55331        -0.107748      0.129669      0.066860
O      13.79004      9.68657      4.63853        -0.354189      0.298569     -0.301049
O       1.81078      9.70513      8.66847         0.789672     -0.217249      0.401672
O      13.55221      9.50307      8.70042        -0.035659      0.531555      0.727689
O       5.98241      2.00548      0.30593        -0.667295     -0.016416      0.797281
O       5.98853      1.96689     12.77731        -0.381358      0.006688      1.361520
O       5.90345     13.66632      0.35147         0.119662      0.311904     -0.784289
O       5.89874     13.65275     12.92959        -0.473810      0.078249      0.298863
O       5.78091      1.85971      4.65925         0.377428      0.042968     -0.548684
O       5.76915     13.70427      4.56390        -0.024949      0.030219     -0.338751
O       5.82723      1.76011      8.72195        -0.201790      0.485581     -0.855526
O       5.81816     13.82324      8.56368         0.291665     -0.990200      1.605059
O       5.93591      5.77352      0.61311        -0.302863     -0.327182     -0.325853
O       5.93031      5.77094     12.80485        -0.256295      0.260062     -0.772085
O       6.01886      5.60191      4.60292        -0.392367      0.197645     -1.095054
O       5.76780      5.75071      8.65070         0.155188      0.534479      0.331630
O       5.62868      9.61711      0.35325         1.067414      0.207653      0.273630
O       5.86089      9.72159     12.89281         0.012730      0.413597     -0.524747
O       5.81045      9.82902      4.52090         0.119109      0.221645      0.075388
O       5.75596      9.68372      8.66018         0.262237      0.243017     -0.031633
O       9.71173      1.98969      0.37765        -0.380788     -0.437653      1.034884
O       9.62219      1.74616     12.83098         0.369368      0.083492     -1.253853
O       9.75355     13.47229      0.43560        -0.514061      0.020309     -0.490167
O       9.82733     13.64088     12.81080        -0.010972      0.344885     -0.434348
O       9.85329      1.83660      4.51769        -0.784490     -0.837812      0.421866
O       9.69678     13.85264      4.67280         0.235078     -0.379398     -0.889993
O       9.97242      1.98762      8.69462        -0.250998     -0.196037     -0.466027
O       9.76991     13.49868      8.65956        -0.035784      0.129143     -1.270985
O       9.66786      5.82498      0.42833         0.273799      0.167910      0.572089
O       9.90363      6.18765     12.62068        -0.831232     -0.945005      0.984876
O       9.92104      6.05464      4.57668        -0.810156     -1.002348      0.511082
O       9.85373      5.73207      8.57298        -0.046400     -0.166661     -0.314849
O       9.70239      9.67404      0.51084        -0.111297     -0.007903      0.056177
O       9.48612      9.52112     12.80163         1.065277      0.362272      1.021397
O       9.57237      9.79557      4.63563         0.223123     -0.655677     -1.373544
O       9.75739      9.75893      8.60081         0.134632      0.146531     -0.579767
O       3.91840      1.78250      2.37101        -0.151524      0.073639     -0.155577
O       3.84615      1.71786     14.88405         0.925098      0.745198      0.255327
O       3.80010     13.70732      2.24464         0.748940     -0.010842      0.295729
O       3.96808     13.61423     15.09097        -1.069438      0.321007     -0.370438
O      15.60482      1.95044      2.28997        -0.023581     -0.236728      0.139368
O      15.46221      1.90255     15.05946         1.089572     -0.349037      0.342994
O      15.52478     13.48625      2.50146         0.372181      0.425210      0.085610
O      15.51248     13.49681     14.85167         0.380291      0.708850      0.131949
O       3.84521      2.04368      6.72440         0.019577      0.106096     -0.441947
O       3.86712     13.66613      6.69449        -1.002653     -0.495012     -0.171595
O       0.00212      1.84252      6.55137         0.294299      0.108235     -0.233396
O       0.03332     13.80446      6.30316        -0.259174     -0.259647      0.498795
O       3.87349      2.00064     10.85998         0.826079     -0.574132     -0.098401
O       3.91172     13.62462     10.78354         0.496976     -0.080075      0.098898
O       0.13448      2.04104     10.89040        -1.394167     -0.361619     -0.111649
O       0.04903     13.58883     10.91981         0.544323     -0.375127      0.480770
O       3.94257      5.72092      2.68074         0.488092      0.661573     -0.488661
O       3.99612      5.97881     14.96475        -1.160133     -0.321777      0.111315
O       0.05812      5.75761      2.34977        -0.036340     -0.099654     -0.108960
O      15.48246      5.64321     15.22708         0.478253      1.256153     -0.674148
O       3.88105      5.67410      6.50666         0.430328      0.193512      0.069438
O       0.02629      5.88258      6.68850        -0.188799      0.152781      0.009940
O       4.06317      5.87931     10.93475        -1.091215     -0.132458     -0.395697
O       0.18729      5.86684     10.58506        -1.058895     -0.774203      0.267279
O       3.89483      9.59244      2.59576        -0.302722      0.600720     -0.393080
O       3.95783      9.53067     14.93910        -0.797037      0.519222     -0.096403
O      15.58966      9.76985      2.31930         0.805892     -0.090490      0.820153
O       0.08078      9.67451     14.64450        -1.279207      0.364725      0.194459
O       3.84307      9.80373      6.59459        -0.143914      0.266822     -0.157734
O      15.50795      9.64439      6.78328         1.172931      0.013714     -0.501379
O       3.94105      9.72149     10.74728         0.755765     -0.012178      0.235353
O       0.15461      9.59395     10.85235        -0.986556      0.300324      0.158811
O       7.83104      1.84531      2.45013        -1.344138      0.184154      0.561901
O       7.78760      2.10102     14.92263        -1.093427     -0.338512      0.129634
O       7.76707     13.52590      2.42024        -0.830031      0.472002      0.612696
O       7.82109     13.49716     14.90972        -0.237556     -0.164159      0.244790
O       7.84303      1.80818      6.80416         0.196681      0.129344     -0.656892
O       7.71889     13.65158      6.57684         1.198100      0.475427      0.482179
O       7.82901      1.70896     10.68584         0.118079      0.310041     -0.025122
O       7.74455     13.48949     10.71467         1.364243      0.782038     -0.083472
O       7.83510      5.62162      2.58896        -0.326033      0.341011      0.372395
O       7.79366      5.86646     14.69491         1.142200      0.047296      0.648979
O       7.79382      5.88982      6.69381         0.263851     -0.628371      0.109003
O       7.81295      5.93555     10.62274         0.892640     -0.205632      0.132566
O       7.81818      9.72026      2.53094        -1.648599      0.290024     -0.127976
O       7.81383      9.81346     15.07837        -0.174949     -0.145404     -0.115806
O       7.67320      9.66611      6.74642        -0.034722      0.115531     -0.397471
O       7.83687      9.75283     10.79539        -0.031960     -0.066767     -0.812837
O      11.65403      1.93694      2.40190         0.569899     -0.693316      0.522856
O      11.55947      1.96132     14.92298        -0.325807     -0.668735     -0.354862
O      11.59700     13.70849      2.29292         1.077975      0.042035      0.537969
O      11.63059     13.62847     15.02534         0.423524      0.538894     -0.274713
O      11.74790      1.76770      6.47198        -0.005926      0.155156      0.150682
O      11.76476     13.60266      6.63619        -0.683234     -0.161255      0.180278
O      11.78534      1.78814     10.84578        -0.549155      0.605423      0.055427
O      11.79013     13.51757     10.71228        -0.448302      0.136464      0.088634
O      11.66703      5.79460      2.50357         0.669516      0.496410      0.285256
O      11.65409      5.73843     14.79629         0.538282      0.762528     -0.086361
O      11.72542      5.63627      6.49396         0.582092      0.403486      0.684092
O      11.66116      5.53136     10.70115         0.897985      0.307746     -0.275905
O      11.75128      9.56145      2.34657        -0.666620      0.236242      1.127779
O      11.72457      9.66931     14.89502        -0.487451     -0.155984     -0.126310
O      11.62086      9.75154      6.47058         0.361341      0.093744      0.469348
O      11.69277      9.70168     10.81136         0.071023      0.226439     -0.214345
O       2.09981      3.84103      2.31456        -0.355944     -1.235273      0.050663
O       1.95089      3.91191     15.25183         0.635923     -1.469877      0.070001
O       1.87255     15.52494      2.48364        -0.274782      0.201930     -0.253992
O       1.89345     15.51985     14.93063        -0.182805     -0.034333      0.236656
O      13.66476      3.89689      2.14675        -0.271621     -0.288242      0.542106
O      13.47447      3.87038     15.07426         0.398595      0.173959     -0.390173
O      13.68432     15.56660      2.32755        -0.006762     -0.137590      0.154927
O      13.49909     15.59267     15.05775         0.253762     -1.779042      0.160815
O       1.74905      3.93735      6.57483         0.444081     -1.171917      0.043046
O       2.06981      0.06709      6.57958        -0.562128     -0.667200     -0.301094
O      13.72712      3.80564      6.61858         0.139338     -0.183620      0.049691
O      13.74169     15.57811      6.60826        -0.274007     -0.548003     -0.268531
O       2.18228      3.93260     10.67860        -0.318139      0.485969      0.032976
O       2.01119     15.56069     10.76038        -0.093395      0.750730      0.268444
O      13.63044      3.72807     10.94518         0.534596      1.549841     -0.168353
O      13.77958     15.55773     10.72845        -0.014087      0.545093      0.662403
O       1.92432      7.68011      2.48821         0.091994      1.158280      0.244439
O       1.90360      7.77520     15.04860        -0.148980     -0.640832     -0.370927
O      13.84395      7.80724      2.55530        -0.328946     -0.790484      0.039845
O      13.73144      7.85587     14.73758         0.125255     -1.445723      0.313008
O       2.06941      7.81563      6.41504        -0.019772      0.296310      0.044608
O      13.58891      7.67349      6.62034        -0.225519      0.323108      0.123092
O       2.12195      7.72716     10.82080         0.186063     -0.216666     -0.116062
O      13.75423      7.67028     10.87048        -0.270176     -0.045217     -0.577371
O       1.96764     11.58478      2.38178         0.252935      0.421902      0.202345
O       1.97344     11.60624     14.99292         0.308668      0.537565     -0.424278
O      13.48266     11.63137      2.47864         0.345148     -0.117511      0.452691
O      13.54582     11.67189     14.88140         0.251683      0.531293     -0.174688
O       1.81333     11.76417      6.68855         0.298227     -0.636091     -0.585820
O      13.75168     11.69114      6.67363        -0.301268      0.371158     -0.075681
O       2.05273     11.66452     10.78281        -0.244774     -0.563888      0.416833
O      13.77457     11.60511     10.70538        -0.193650     -0.860890      0.291093
O       5.82033      3.73215      2.68006         0.314300      0.100844     -0.833325
O       5.78284      3.99504     14.96167        -0.195618     -1.264886      0.077722
O       5.86766     15.57457      2.45663         0.082063      0.080295      0.004568
O       5.99194      0.05632     14.93106        -0.198832     -0.513439     -0.084599
O       6.02108      3.79161      6.73184        -0.579796      1.208640     -0.326645
O       5.68317      0.00141      6.69281         0.569417      0.556329     -0.217990
O       6.01722      3.84473     10.64238        -0.241605     -0.046657      0.156412
O       5.97727     15.53896     10.81647        -1.104664     -0.313162      0.168522
O       5.87047      7.78617      2.44672         0.455734     -0.397399      0.858833
O       6.05095      7.79934     14.85741        -0.332801      0.637625      0.440765
O       5.74831      7.74932      6.38959        -0.149680     -0.210614      0.680351
O       6.01169      7.78899     10.74686        -1.007287      0.371712     -0.095165
O       5.72971     11.73009      2.18688        -0.172143     -0.883858      0.747731
O       5.81701     11.64622     15.03099        -0.161536      0.198203     -0.073121
O       5.79479     11.76757      6.63024         0.002939     -0.769426     -0.003411
O       5.96394     11.72885     10.78097        -1.082909     -1.257488     -0.158521
O       9.79650      3.78797      2.61976        -0.492632      0.710434      0.087627
O       9.69143      3.91147     14.67859         0.123388      0.601221     -0.190421
O       9.65256     15.53577      2.38394         0.165405     -0.313288      0.513737
O       9.47996     15.58532     15.02106         1.060929     -0.309954     -0.323902
O       9.84599      3.82935      6.29015        -0.782295     -0.895972      0.706632
O       9.83072     15.54795      6.79530        -0.477203     -0.166632     -0.312550
O       9.52448      3.80507     10.80587         0.825296      0.255950     -0.141701
O       9.92511     15.50588     10.61775        -0.458515     -0.168565      0.059430
O       9.64969      7.72684      2.61353         0.126120      0.781608     -0.265371
O       9.90616      7.75706     14.89135        -0.932432      0.571277      0.202379
O       9.73679      7.74630      6.65450        -0.010377      0.683264      0.591790
O       9.94555      7.80075     10.44421        -0.448955     -0.295074      0.219788
O       9.73976     11.69774      2.77858         0.414869     -0.626835     -0.381432
O       9.89973     11.65452     14.74305        -0.499586     -0.314542      0.267332
O       9.44838     11.64233      6.48339         0.635734      1.176769      0.218270
O       9.85769     11.67596     10.75336        -0.239833     -0.547664      0.218093
