  # total energy = -7880.87636646 
CRSYTAL
PRIMVEC
    15.6080000000000005    0.0000000000000000    0.0000000000000000
     0.0000000000000000   15.6080000000000005    0.0000000000000000
     0.0000000000000000    0.0000000000000000   16.6239999999999988
PRESSURE
-0.382413 -0.575081 -0.561376 -0.040755 -0.004933 -0.03525
PRIMCOORD
320 1
Pb       4.04057      3.93440      4.23834        -0.221483     -0.053513     -0.400420
Pb       3.93631      3.94367     16.56770        -0.147662      0.095513     -0.083251
Pb       3.94350      0.08637      4.07480        -0.386921     -0.430151      0.389189
Pb       3.83116     15.58874     16.46562        -0.004381      0.079693      0.876573
Pb      15.59602      3.86349      4.11859        -0.234386     -0.206736      0.302030
Pb      15.57433      3.78013     16.60367         0.485865      0.087075      0.116503
Pb      15.53685     15.59329      4.07882         0.206363      0.292219      0.110912
Pb      15.59546      0.03434     16.60145         0.195551     -0.226786      0.262039
Pb       3.83320      3.83336      8.25192         0.053010      0.138203      0.020193
Pb       3.98068      0.03904      8.22051         0.007751     -0.196573     -0.484845
Pb      15.52234      3.91843      8.26704         0.403212      0.053230      0.668573
Pb       0.02806     15.57388      8.24624         0.138639     -0.266577      0.085579
Pb       3.70284      3.95509     12.65069         0.374175      0.100386     -0.903481
Pb       3.83416     15.48578     12.55148         0.077340     -0.058970     -0.937535
Pb      15.58133      3.93524     12.57990         0.163736     -0.187932     -0.935255
Pb       0.15149     15.57334     12.47275        -0.222653      0.045580     -0.300464
Pb       3.75125      7.87866      3.99845         0.642040      0.373084      0.506286
Pb       3.89995      7.65674     16.57865        -0.071619      0.408038     -0.079166
Pb       0.05425      7.87320      4.08122         0.206133      0.168075      0.158158
Pb      15.52001      7.74564     16.60010         0.285029      0.314494      0.039764
Pb       3.88528      7.76234      8.34261         0.230723     -0.165674     -0.026873
Pb      15.36438      7.73163      8.52804         0.465963     -0.085702     -0.281717
Pb       3.93762      7.84176     12.44504        -0.190097     -0.041314     -0.190620
Pb      15.40933      7.72952     12.51076         0.530284      0.031767     -0.495922
Pb       3.85442     11.70153      4.07512        -0.063160     -0.041569      0.094005
Pb       3.91175     11.65468     16.54483        -0.018855      0.040968      0.543251
Pb      15.56040     11.75736      4.11769         0.733173     -0.238045     -0.167386
Pb      15.56527     11.79709      0.01869         0.000569     -0.335570     -0.654073
Pb       3.84618     11.88320      8.31447         0.070909     -0.270812     -0.152555
Pb      15.59039     11.64720      8.12312         0.364457      0.492279      0.355744
Pb       3.89524     11.67862     12.29243         0.029756     -0.117920      0.401830
Pb       0.05750     11.57258     12.41721         0.164631      0.293763      0.262820
Pb       7.76316      3.68439      4.14596         0.026087      0.225151     -0.649567
Pb       7.79411      3.88976     16.54409        -0.111689     -0.091416      0.360383
Pb       7.78426     15.48656      4.14421        -0.307044      0.560271      0.408401
Pb       7.81599      0.09022     16.58314        -0.059574     -0.375343      0.302181
Pb       7.70486      3.80550      8.53505        -0.373397      0.160179     -0.729651
Pb       7.84705     15.58210      8.32601        -0.640475      0.188130     -0.812087
Pb       7.78036      3.66782     12.47754         0.202570      0.559984      1.038989
Pb       7.83335     15.57747     12.50398        -0.392375     -0.322833     -0.046641
Pb       7.89307      7.81033      4.10082        -0.739641      0.265144     -0.490006
Pb       7.70151      7.81489     16.54380        -0.501739     -0.166217      0.408864
Pb       7.92463      7.86536      8.20055        -1.019834     -0.253282      0.580586
Pb       7.92059      7.61267     12.39759        -1.000598      0.511920      0.492288
Pb       7.86015     11.71479      4.06147        -0.556672     -0.716195      0.594122
Pb       7.77109     11.75420     16.48253         0.132801      0.095191      0.494561
Pb       7.72404     11.71265      8.23795        -0.141104     -0.291965     -0.059378
Pb       7.82594     11.57099     12.40922         0.238369     -0.096520      0.152839
Pb      11.76623      3.82403      4.30407         0.124163     -0.096043     -0.506609
Pb      11.73198      4.09766      0.23331        -0.286947     -0.807486     -0.054260
Pb      11.45304     15.58811      4.16527         0.985862      0.192856     -0.163486
Pb      11.64966     15.59688     16.50321         0.282416     -0.251513      0.696839
Pb      11.65178      4.11119      8.42005        -0.141761     -0.240450     -0.277926
Pb      11.57534      0.08039      8.34529         0.438305     -0.066473     -0.207740
Pb      11.82225      3.74786     12.47078        -0.373847      0.192992      0.214243
Pb      11.56811     15.49495     12.36185         0.607371      0.157406      0.150940
Pb      11.67478      7.63932      4.01652         0.255382      0.223783      0.632580
Pb      11.67975      7.83429      0.02062         0.422547     -0.143332      0.227600
Pb      11.65792      7.81576      8.26735         0.050814      0.323992     -0.142204
Pb      11.47083      7.96032     12.49986         0.675735      0.032994     -0.007198
Pb      11.80657     11.43965      4.25654        -0.097029      0.271854     -0.246749
Pb      11.83571     11.67386     16.58943        -0.492510      0.014192     -0.093764
Pb      11.77217     11.87307      8.42123        -0.169547     -0.752949     -0.513591
Pb      11.73245     11.74798     12.39198        -0.301094     -0.430101     -0.054306
Ti       1.91244      2.02243      2.13995        -0.221551     -1.420492      0.192204
Ti       1.98296      1.94432     14.57794        -0.258594      0.112810      0.166953
Ti       1.89409     13.65996      2.14855         0.409513      1.197724      1.391284
Ti       1.88318     13.61647     14.67241         0.046048     -0.712410     -1.345905
Ti      13.55773      1.88587      2.20178         0.200216      0.079192      0.611314
Ti      13.70419      1.91001     14.65018        -0.387816     -0.292471     -1.239311
Ti      13.53996     13.58390      2.25395        -0.018105      0.970446      0.211818
Ti      13.63458     13.59801     14.58947         0.465303      0.284943     -0.355577
Ti       1.87518      1.95200      6.33465         1.042133     -0.520833      0.583901
Ti       1.92201     13.65105      6.25768         0.189068     -0.070423      0.194733
Ti      13.62531      1.90293      6.56185        -0.365452     -0.168634     -1.394482
Ti      13.56540     13.58865      6.37879         0.545486      1.014429     -0.082128
Ti       1.92884      1.92659     10.53886         0.033387     -0.006089      0.258558
Ti       1.87448     13.53788     10.45576         1.339663      1.256951     -0.254153
Ti      13.64812      1.92124     10.56420         0.634047     -0.068023      0.213041
Ti      13.73783     13.71273     10.53969        -0.081505     -0.209301      0.028857
Ti       1.99987      5.77501      2.28261        -0.364146      0.308588     -0.741502
Ti       1.81948      5.90557     14.70499         1.286672     -0.128182     -0.606936
Ti      13.72717      5.77600      2.26605        -0.419112     -0.268540      0.031248
Ti      13.60010      5.73471     14.70431        -0.016253      0.199930     -0.582016
Ti       1.83463      5.87926      6.39040         1.056224     -0.248999      0.129142
Ti      13.58814      5.84246      6.45964        -0.352339     -0.022980     -1.186135
Ti       1.96628      5.86003     10.53598         0.119046     -0.022182      0.104360
Ti      13.55904      5.83130     10.64564         0.706501     -0.019462     -0.647742
Ti       1.95871      9.82126      2.05388        -0.198377     -0.308738      1.594697
Ti       1.95982      9.77359     14.63463        -0.254481      0.122945     -0.145860
Ti      13.63923      9.63868      2.24493         0.823310      0.301595     -0.208874
Ti      13.64400      9.64537     14.67640        -0.003178      0.736242      0.797866
Ti       1.99663      9.69522      6.36565         0.070101      0.454981     -0.744547
Ti      13.76326      9.66535      6.34627        -1.511489     -0.318982     -0.163264
Ti       2.00811      9.72625     10.48228         0.490062     -1.131450     -0.294784
Ti      13.70083      9.75127     10.50780        -0.466555     -0.514415     -0.529816
Ti       5.79908      1.92786      2.10987         0.455481      0.945158     -0.586484
Ti       5.88503      1.86983     14.74582        -0.956993      0.817159     -1.151146
Ti       5.78599     13.70774      2.21039        -0.503750     -0.715125      0.030632
Ti       5.82945     13.62218     14.66781        -0.062054      0.274944     -0.430284
Ti       5.90732      2.00509      6.33322         0.104870     -1.478867      0.162187
Ti       5.79312     13.56645      6.26041         0.156256      2.057384     -0.105101
Ti       5.78445      1.86460     10.71429        -0.489771     -0.006132     -1.100957
Ti       5.89058     13.62009     10.51962        -0.886072      0.336170     -1.293268
Ti       5.80633      5.90345      2.18015         0.541173     -0.565417      0.360229
Ti       5.84028      5.85787     14.60863        -0.106842     -0.097759      0.286286
Ti       5.79768      5.81973      6.33184        -0.905336      0.437199      0.185575
Ti       5.88727      5.66134     10.66927        -0.945330      1.227569      1.340993
Ti       5.86053      9.83039      2.16679        -0.734703     -0.278553     -0.141226
Ti       5.74027      9.79147     14.65312         0.517148     -0.889698     -0.464062
Ti       5.76792      9.74908      6.36520         0.509614     -0.623024     -0.524630
Ti       5.99555      9.64286     10.59047        -1.879458     -0.199281     -1.702193
Ti       9.70685      1.86043      2.12611         0.023310      1.429666      0.023358
Ti       9.91004      1.94825     14.69958        -0.667988      0.427782      1.686629
Ti       9.69029     13.53829      2.25535         0.917907      0.896436     -1.240485
Ti       9.77324     13.59246     14.65006        -0.419303     -0.408741      0.344066
Ti       9.77729      2.04609      6.38781        -1.333679     -0.534546     -0.154584
Ti       9.74895     13.66546      6.30335        -0.961015     -0.115149      1.681008
Ti       9.76843      1.91192     10.56397         0.141874      0.468551     -0.002808
Ti       9.71392     13.60176     10.40983        -0.090567     -0.127659      1.080390
Ti       9.69979      5.75062      2.21554        -0.166834     -0.696100      0.281640
Ti       9.77147      5.80967     14.80271        -0.411244     -0.766531     -0.195373
Ti       9.56884      5.85754      6.25929         0.503737     -0.569238      0.889294
Ti       9.75191      5.78357     10.67850        -0.068184     -0.325277     -1.001718
Ti       9.78074      9.73936      2.19782        -0.343268      0.239457      0.329090
Ti       9.67040      9.65639     14.87162         0.421384      1.800633     -2.293738
Ti       9.73912      9.74740      6.34069         0.990949      0.589184      0.626168
Ti       9.79193      9.74926     10.47031         0.056802      0.212252      0.536103
O       1.81373      1.96352      0.34300         0.173484     -0.019961      0.330424
O       1.96684      1.93852     12.76806        -0.047543      0.065639      0.615410
O       1.67498     13.79309      0.40183         0.022116     -0.687067     -1.177017
O       1.85314     13.51810     12.81601         0.518740      0.398535      1.114410
O      13.63122      2.05487      0.43522         0.097085     -0.411410     -0.416426
O      13.52604      1.91092     12.81285         0.210514     -0.223722      1.605000
O      13.61526     13.76141      0.47274         0.339473     -1.034317      0.339024
O      13.63752     13.58417     12.77616        -0.265747     -0.052320      0.538267
O       1.87256      1.85691      4.59402         0.017606      0.420710     -0.636025
O       1.96288     13.54420      4.49691         0.076471      0.534378     -0.100549
O      13.61171      1.94369      4.75558        -0.093642      0.197540      0.361371
O      13.40755     13.68623      4.63253         0.609680     -0.400221     -0.389354
O       1.99351      1.83586      8.76491        -0.125500      0.319224      0.025724
O       1.99515     13.52225      8.64216        -0.338860      0.225116      0.322046
O      13.65980      1.87958      8.78594         0.039411      0.331589     -0.762962
O      13.76120     13.47088      8.76692        -0.250156     -0.065923     -0.448713
O       1.96895      5.82633      0.50302         0.082342      0.206285     -0.934838
O       1.93308      5.81047     12.90474        -0.498220      0.028231      0.821519
O      13.57715      5.79955      0.44483         0.110235     -0.198850     -0.246444
O      13.78468      5.77045     12.89718        -0.523661      0.156062     -0.031396
O       1.79022      5.64171      4.59841         0.192869      0.896403      0.166532
O      13.60998      5.74789      4.64230         0.123362      0.260625      0.407552
O       2.03988      5.89248      8.75096        -0.163831      0.056553     -0.069942
O      13.59982      5.89294      8.79305        -0.214925      0.032688      0.514964
O       2.12851      9.74246      0.34226        -0.724712      0.183403     -1.110093
O       2.10927      9.73991     12.84640        -0.974211      0.386658      0.133109
O      13.52817      9.61894      0.46154         0.369214     -0.018972     -0.504037
O      13.58708      9.61806     12.93068         0.238781      0.386305     -0.436753
O       1.80051      9.71305      4.53047         0.150434      0.086244      0.766565
O      13.80330      9.57427      4.47339        -0.435896      0.655332      1.009758
O       2.11607      9.70534      8.66090        -0.390982      0.068898      0.506224
O      13.56220      9.69338      8.66717         0.627612      0.176343      1.039822
O       5.72447      1.88102      0.28126         0.049780      0.299291      0.872319
O       5.94590      1.77148     12.90959        -0.389065      0.025756      0.423540
O       5.88664     13.61563      0.46324         0.379945      0.153722     -1.145986
O       5.70996     13.74520     12.87399         0.225498     -0.347530      0.717813
O       5.93968      2.08578      4.52559        -0.224517     -0.046468     -0.488165
O       5.63345     13.65902      4.47555         0.701491     -0.512828     -0.533398
O       6.00112      2.06234      8.84896        -0.197479     -0.522628      0.788300
O       5.81865     13.72324      8.65304         0.165020     -0.104913      0.760248
O       5.65894      5.90337      0.41530         0.198661     -0.172364     -0.716966
O       5.99664      5.86265     12.84675        -0.418069      0.152657      1.014046
O       5.67712      5.69041      4.54400         0.760769      0.242936      0.186838
O       5.74292      5.66458      8.96815         0.241628     -0.326726     -2.039975
O       5.80083      9.83480      0.36285         0.181103     -0.227962      0.011135
O       5.89594      9.82976     12.86264         0.278462      0.045889     -0.198990
O       5.71111      9.78904      4.59223         0.693370     -0.113525     -0.641155
O       5.88568      9.66644      8.77701         0.083493      0.078621     -0.356850
O       9.87110      2.03761      0.36007        -0.489178     -0.590175     -0.123380
O       9.94862      1.74169     12.97016        -0.468597      0.102811     -1.410749
O       9.71550     13.63734      0.46505        -0.054587     -0.033808      0.178125
O       9.80870     13.73431     12.86115         0.202744     -0.311809      0.013943
O       9.60382      1.93919      4.59433         0.343101     -0.095928      0.086705
O       9.71951     13.84891      4.56153         0.400970     -0.703199     -0.984980
O       9.73525      2.03568      8.76944        -0.329982     -0.143173      0.478428
O       9.62820     13.64745      8.67415         0.144899     -0.139290     -0.936321
O       9.93652      5.75047      0.43942        -0.517388      0.380341     -0.545336
O       9.84608      5.95917     13.04888        -0.525648      0.128414     -0.668916
O       9.48011      5.95362      4.48666         0.490315     -0.049816     -0.005843
O       9.73699      5.73801      8.90707        -0.028961     -0.023435     -0.192127
O       9.70104      9.76992      0.44434         0.290516      0.038414     -1.266152
O       9.76022      9.80580     12.95893        -0.025326     -0.626796      0.633175
O       9.77692      9.89466      4.57949        -0.199430     -0.688276     -1.164815
O       9.89909      9.76804      8.74512        -0.493688     -0.286745     -0.933458
O       3.83505      1.80694      2.44110         0.235154      0.632957     -0.063573
O       3.83400      1.82276     14.83933         0.199038      0.429825      0.295418
O       3.86904     13.75117      2.34653        -0.245793      0.210336      0.192612
O       3.84290     13.60804     15.19861         0.741692      0.558336     -1.127980
O      15.51494      2.11206      2.52477        -0.091623     -0.509501     -0.206047
O       0.04107      1.98963     14.84582        -1.011317     -0.699592      0.286158
O       0.02246     13.70789      2.72859        -1.546810     -1.169540     -0.732170
O      15.59909     13.45397     14.81878        -0.601963      0.420668      0.686160
O       4.02490      1.90060      6.59642        -1.616406      0.492301      0.430234
O       3.91224     13.59279      6.57031        -0.479703     -0.177933      0.482284
O       0.03623      2.00849      6.79881        -0.999358     -0.685741     -0.234803
O      15.54967     13.71060      6.55942        -0.022722     -0.599968      0.087739
O       3.91631      2.04392     10.83670        -0.525446     -0.596626      0.101305
O       3.78778     13.63946     10.84023         0.768373     -0.119586     -0.201905
O      15.49720      1.93563     11.01548         1.176256      0.141713     -0.622476
O       0.06485     13.68346     10.81635        -1.442511     -0.436686      0.108187
O       3.90497      5.67960      2.52759        -0.801688      0.628521      0.274410
O       3.84505      5.93499     14.90904         0.094259     -0.457123      0.139538
O      15.58980      5.64051      2.39464        -0.475066      0.593632      0.461824
O      15.53299      5.72930     14.96297         0.735340      0.743028      0.558511
O       3.82454      5.76169      6.69904         0.174136     -0.432785     -0.116745
O      15.53854      5.98783      6.90971         0.515829     -0.554917     -0.697233
O       3.93892      5.93097     11.02101        -0.240253     -1.044905     -0.127528
O       0.02879      5.78305     10.78431        -0.634620      0.863498      0.301620
O       3.79620      9.86476      2.44138         0.672027     -0.883916      0.518260
O       3.85690      9.75213     14.82925         1.245180     -0.025767      0.592214
O      15.60338      9.76023      2.36835        -0.255726     -0.177093      0.043699
O       0.00359      9.78415     15.02704        -0.475538     -0.123759     -0.030667
O       3.93733      9.75779      6.46925        -1.361539      0.397394      0.862974
O       0.01413      9.63956      6.74142        -0.249973      0.197008     -0.181103
O       4.00265      9.76306     10.88377        -0.832242      0.130150     -0.270862
O       0.02616      9.61828     10.89785        -0.015943     -0.143470     -0.417882
O       7.74866      1.98121      2.32861         0.109384     -0.236984      0.201899
O       7.68284      2.01538     14.99978         1.679058     -0.302315      0.241651
O       7.80184     13.46776      2.53428        -0.501451      0.824868      0.176339
O       7.82840     13.55434     14.83111        -1.045409      0.505417      0.390108
O       7.79465      1.80720      6.65479         0.527693      0.588023      0.494003
O       7.82478     13.74130      6.40132        -0.142136     -0.245816      0.796751
O       7.84248      1.80509     11.05797         0.842860      0.361070     -0.925175
O       7.77119     13.70869     10.74755         0.630216     -0.158282      0.389747
O       7.75136      5.89717      2.37689         0.208593      0.216818      0.178833
O       7.76551      5.80522     15.09428         0.280047      0.475142     -0.047137
O       7.67186      5.83511      6.79907         1.166335      0.498685     -0.503367
O       7.81909      5.64967     10.99875         0.751987      0.500786     -0.278728
O       7.75670      9.83687      2.47924         0.075560     -0.257220      0.238743
O       7.78435      9.77340     14.94654         0.031305     -0.001238      0.483425
O       7.82202      9.67238      6.60873        -0.391878     -0.576240      0.359805
O       7.83847      9.77922     10.70395         1.016055      0.217075      0.737419
O      11.60862      1.88265      2.56813         0.885146      0.081550      0.052783
O      11.73443      1.93014     14.98901         0.636746     -0.244498      0.005608
O      11.67792     13.62162      2.59707        -0.128294      0.183628     -0.278583
O      11.67863     13.61911     15.00559         0.424567      0.322361     -0.268309
O      11.63394      2.08803      6.70629         0.653918     -0.456984      0.289802
O      11.63944     13.68068      6.74434         0.227183     -0.541388      0.279960
O      11.70157      1.93543     10.79649        -0.603973     -0.414514      0.202360
O      11.72084     13.55420     10.64489         0.151498     -0.214770      0.337134
O      11.63629      5.82900      2.56724        -0.355986      0.035025      0.090570
O      11.71007      5.75132     14.98122         0.259482      0.260906      0.281868
O      11.63254      5.84741      6.69807         0.000478     -0.237915     -0.101159
O      11.67428      5.77348     10.89395         0.349845      0.269843      0.204519
O      11.72597      9.64645      2.50694        -0.713350      0.226210      0.351188
O      11.68831      9.73643     15.03028         0.220706     -0.339004      0.210103
O      11.68974      9.67019      6.64532         0.203585      0.299705     -0.406791
O      11.72227      9.70209     10.84592        -0.090120      0.422352      0.142801
O       1.90495      3.90990      2.48573         0.326135     -1.207881      0.195608
O       1.90144      3.86119     15.01800         0.496594      0.462613     -0.521175
O       1.75587      0.01761      2.42668         0.217264      0.656502      0.322519
O       1.91800     15.53936     14.85942        -0.304708      0.479373      0.037699
O      13.44609      3.89847      2.65384         0.267494     -0.494660     -0.467756
O      13.74070      3.79845     14.82730        -0.486337      0.528013      0.496364
O      13.66858     15.57884      2.53213        -0.128210      0.559788     -0.116886
O      13.72549     15.47946     15.05543        -0.250214      1.013450     -0.663308
O       1.88770      3.86379      6.69006        -0.033368      0.216357      0.126061
O       1.99125     15.54635      6.67134        -0.175707      0.631841     -0.014082
O      13.60085      3.92394      6.81721         0.394638     -0.048285      0.043990
O      13.61238     15.55591      6.79956        -0.206861      0.714816      0.066093
O       1.91106      3.92843     10.81053         0.374311     -0.531575      0.224558
O       1.85787     15.56895     10.81109         0.337161      0.566669      0.201462
O      13.59958      3.87107     10.83557        -0.002349      0.490323      0.125692
O      13.71221     15.55781     10.71907        -0.373849     -0.335045      0.271624
O       1.88392      7.80546      2.51568         0.167215     -0.468510     -0.194210
O       1.98068      7.85644     14.99105        -0.952266     -1.242141      0.055716
O      13.58895      7.67687      2.51826         0.521062      0.331641      0.037352
O      13.69263      7.73431     14.96190        -0.109250     -0.079160      0.217913
O       2.08199      7.81347      6.55466        -0.395937     -0.714893      0.053837
O      13.59686      7.79684      6.69113         0.205536     -0.262717      0.172530
O       2.07841      7.83522     10.85261        -0.410261     -0.381410     -0.161476
O      13.58208      7.78781     10.93135         0.465213     -0.590089     -0.167457
O       1.98493     11.78117      2.45333        -0.757108     -0.806822     -0.401729
O       2.05798     11.70549     14.93114        -0.570839     -0.251552      0.513291
O      13.57705     11.60548      2.46056         0.276679      0.782876      0.315323
O      13.64692     11.70238     15.02713        -0.284756     -0.373682      0.082651
O       1.93165     11.72687      6.56116        -0.298801     -0.832133      0.442018
O      13.57820     11.63132      6.56833         0.364554      0.114231      0.092752
O       1.88673     11.63796     10.66963         0.003821     -0.179509      0.559905
O      13.85985     11.55395     10.87105        -0.926569      0.995897     -0.126208
O       5.85107      3.86667      2.38673        -0.369555     -0.352212      0.218777
O       5.71474      3.94604     14.93888         0.083617     -0.333961      0.057125
O       5.92654      0.02245      2.52109        -0.128992     -0.319249     -0.018924
O       5.82150      0.01216     15.06194         0.191262     -1.696830     -0.279013
O       5.90212      3.85516      6.73055        -0.068172      0.677733     -0.017366
O       5.77661     15.57224      6.41095         0.244975     -0.009990      0.903245
O       5.92163      3.78349     11.14475        -0.260440      0.189810     -0.716213
O       5.82261     15.55799     10.86482        -0.185515      0.356498      0.077428
O       5.67815      7.80017      2.43915         0.307798      0.444025      0.285655
O       5.88024      7.82623     14.98078        -0.149160      0.014525      0.006838
O       5.66025      7.70585      6.63502         0.857053      0.367931      0.122512
O       5.92794      7.75872     10.80098         0.415273      0.057108      0.558913
O       5.66897     11.67787      2.41909         0.581825      0.496362      0.491629
O       5.79727     11.69963     14.89121         0.137830      0.632395      0.321790
O       5.93813     11.69873      6.66892        -0.086102     -0.323253     -0.025071
O       5.90623     11.75118     10.62381        -0.065235     -0.157752      1.025940
O       9.71788      3.82925      2.41277        -0.037130      1.267876      0.523794
O       9.67456      3.87901     15.00757         0.321542      0.064207     -0.221480
O       9.66934      0.03584      2.51740        -0.105911     -1.342316     -0.106156
O       9.66827      0.05086     15.14788         0.304267     -0.624799     -0.749050
O       9.66255      3.97257      6.50771        -0.088148     -0.181646      0.419343
O       9.80682      0.04266      6.79156         0.045777     -0.358606     -0.338143
O       9.80661      3.85376     11.00926        -0.294936     -0.863196     -0.182866
O       9.81280     15.50716     10.77432        -0.007925      0.934480     -0.138144
O       9.67818      7.88379      2.50767         0.080864     -0.874284      0.128106
O       9.71412      7.80083     15.15615         0.165532     -0.508237     -0.233719
O       9.81480      7.73350      6.75307        -0.915150      0.081830     -0.514318
O       9.66056      7.78938     10.80810         0.445797     -0.174668      0.280510
O       9.76773     11.68202      2.47662         0.251175     -0.252884      0.627783
O       9.76025     11.70796     14.92147         0.055973      0.074464      0.476612
O       9.62016     11.61749      6.66714         0.634508      1.535180     -0.153268
O       9.76353     11.68492     10.75750        -0.075371      0.202659      0.365360
