  # total energy = -7881.83964919 
CRSYTAL
PRIMVEC
    15.6080000000000005    0.0000000000000000    0.0000000000000000
     0.0000000000000000   15.6080000000000005    0.0000000000000000
     0.0000000000000000    0.0000000000000000   16.6239999999999988
PRESSURE
-0.938858 -0.836617 -0.562794 -0.100989 0.062661 -0.056194
PRIMCOORD
320 1
Pb       4.01867      3.88795      4.21517        -0.349468      0.113427     -0.238411
Pb       3.91186      3.91213     16.61102        -0.202598     -0.070324     -0.343947
Pb       3.93868      0.05166      4.10593        -0.390515      0.171965     -0.312878
Pb       3.83293     15.56123     16.51033         0.069695      0.327940      0.523534
Pb      15.54034      3.86226      4.09770         0.305184     -0.551768      0.508617
Pb      15.57374      3.80135     16.60209         0.362184     -0.140154     -0.327238
Pb      15.58457     15.57518      4.07792        -0.363532      0.683337      0.054451
Pb       0.02123      0.01887     16.61376        -0.140084      0.136125      0.138347
Pb       3.85352      3.85637      8.26094         0.203819      0.255126      0.619904
Pb       3.98650      0.08509      8.27944        -0.663898      0.044975     -0.042000
Pb      15.52871      3.93597      8.24184         0.442340     -0.530943      0.473732
Pb       0.04288     15.58048      8.25542        -0.029609      0.439121      0.117363
Pb       3.70012      3.98273     12.63355         0.333112     -0.145249     -0.623142
Pb       3.81257     15.47392     12.52489         0.782514      0.051055     -0.590369
Pb      15.56748      3.90677     12.52143         0.486209     -0.230568     -0.625387
Pb       0.12274     15.58655     12.47122        -0.746195     -0.007691     -0.257383
Pb       3.74047      7.86699      4.00486         0.719164      0.262427      0.733767
Pb       3.85239      7.66033     16.58271         0.130495      0.531201     -0.781524
Pb       0.03461      7.88134      4.04583        -0.132655      0.016900      0.521047
Pb      15.54240      7.76132     16.60721         0.059188      0.035841     -0.632700
Pb       3.91654      7.77664      8.34063         0.150610     -0.150731     -0.393408
Pb      15.39700      7.75365      8.51419         0.420261     -0.134151     -0.717349
Pb       3.90585      7.85439     12.48810        -0.261118     -0.398985     -0.089604
Pb      15.42571      7.72354     12.49027         0.312008      0.220223      0.450658
Pb       3.88039     11.71195      4.09537         0.022972     -0.417578      0.239378
Pb       3.89225     11.66925     16.54033         0.170036     -0.046237      0.086931
Pb      15.57488     11.79261      4.11329        -0.080851     -0.747054      0.018406
Pb      15.59224     11.80730      0.04332         0.265105     -0.346457      0.045859
Pb       3.84479     11.86372      8.32688         0.401260     -0.894571     -0.646339
Pb      15.53008     11.66557      8.14041         0.016304     -0.053667      0.620073
Pb       3.85551     11.73027     12.34916         0.494969     -0.146164      0.106046
Pb       0.02991     11.55049     12.41919        -0.563348      0.187359     -0.489949
Pb       7.74849      3.70885      4.13364        -0.034139      0.731643     -0.059628
Pb       7.71964      3.84361     16.55549         0.084965     -0.244684     -0.204492
Pb       7.75330     15.49905      4.13858         0.287438      0.185366     -0.730426
Pb       7.79715      0.03792     16.61429        -0.075001     -0.518027     -0.508127
Pb       7.73022      3.82524      8.50931        -0.197254      0.527879     -0.592436
Pb       7.86332     15.56148      8.37506         0.094579      0.245441     -0.435626
Pb       7.78486      3.73911     12.49030         0.399421      0.275729      0.409744
Pb       7.86862      0.00501     12.51849        -0.239889      0.018600      0.001351
Pb       7.82386      7.80558      4.05400        -0.005966     -0.075393      0.125515
Pb       7.72742      7.82870     16.53978         0.341407     -0.080345      0.125054
Pb       7.94671      7.86648      8.24551        -0.901902     -0.423785      0.813073
Pb       7.93659      7.62887     12.43064        -0.392370      0.298384      0.429197
Pb       7.83194     11.75245      4.04431        -0.046899     -0.628053      0.187006
Pb       7.77060     11.69960     16.49180        -0.033875      0.348990      0.784795
Pb       7.70550     11.70582      8.27289        -0.120428     -0.396282     -0.483180
Pb       7.82165     11.57899     12.44857        -0.546669     -0.103173     -0.248255
Pb      11.76759      3.88267      4.29961        -0.365430     -0.321180     -0.069772
Pb      11.74505      4.06664      0.17786         0.103553     -0.468558     -0.453461
Pb      11.51885      0.03498      4.18055         0.500259     -0.059542     -0.246198
Pb      11.64456     15.59571     16.52840         0.309877     -0.437547      0.254524
Pb      11.64310      4.07406      8.40110         0.014087     -0.404958     -0.538362
Pb      11.52844      0.01149      8.30414         0.519770      0.155827      0.062575
Pb      11.79686      3.75681     12.45531        -1.104455      0.100768      0.849890
Pb      11.61070     15.48707     12.37613         0.259856      0.231685      0.011086
Pb      11.72113      7.62248      3.98832        -0.655267      0.583903      0.482775
Pb      11.67407      7.81153      0.02282        -0.065887     -0.365607     -0.524320
Pb      11.65755      7.82437      8.21777        -0.212737      0.152863     -0.072077
Pb      11.49809      7.91591     12.50211         0.795688     -0.599464      0.364793
Pb      11.76503     11.52136      4.29244        -0.160763      0.443017     -0.671985
Pb      11.87635     11.69622     16.58599        -0.606603      0.285212      0.240459
Pb      11.76139     11.83133      8.39892         0.129145     -0.262033     -0.027047
Pb      11.67264     11.71533     12.37327         0.642040      0.262439     -0.429286
Ti       1.92069      2.02073      2.11483        -0.120759     -0.743549     -0.200112
Ti       1.97228      1.91494     14.51306        -0.440084      0.709415      2.470628
Ti       1.92452     13.77054      2.19167        -0.642622     -0.378777     -0.911716
Ti       1.84403     13.61561     14.63767         0.810580     -0.095806      1.290412
Ti      13.53959      1.92734      2.18487         0.722856     -0.415062     -0.134796
Ti      13.69997      1.79664     14.62267        -0.098960      0.935754      0.970728
Ti      13.58731     13.67138      2.26602        -0.579351      0.068323      0.180149
Ti      13.69947     13.57761     14.64305        -0.923081      0.208917     -0.521177
Ti       1.96700      1.91724      6.32256        -0.771846      0.075994     -0.444587
Ti       1.92279     13.58464      6.30761         0.489560      0.731715      0.138171
Ti      13.61055      1.90075      6.50169         0.185107      0.107723      0.108737
Ti      13.61047     13.63848      6.42543        -0.513133      0.237354     -0.626354
Ti       1.94683      1.87810     10.52690         0.255781      1.195663      0.106561
Ti       1.93696     13.56435     10.40904        -0.464867      0.474190      1.057062
Ti      13.66188      1.96656     10.54565         0.117277     -0.908204     -0.236212
Ti      13.72967     13.72335     10.50195        -0.795703     -0.865632     -0.272023
Ti       2.01747      5.78291      2.24727        -0.758257     -0.361897     -0.522616
Ti       1.88707      5.84922     14.68655         0.522123      0.041725      0.082132
Ti      13.70829      5.77661      2.28164        -0.943814     -0.331302     -0.887043
Ti      13.64490      5.63237     14.63798        -0.094370      1.946885      0.515374
Ti       1.90402      5.78708      6.45541         0.367178     -0.155396     -0.711623
Ti      13.57854      5.88052      6.45115         0.621809     -0.598259      0.299960
Ti       1.95378      5.81135     10.48001         0.158263     -0.650275      1.064171
Ti      13.60920      5.83246     10.63796        -0.150958      0.276567     -0.474376
Ti       1.96662      9.79920      2.07500        -0.320537      0.333056     -0.695105
Ti       1.92269      9.74436     14.62420        -0.363271     -0.553045      0.988718
Ti      13.62671      9.71258      2.15390         0.116760      0.660708      0.920458
Ti      13.62945      9.68464     14.71651         0.561219     -0.794799     -0.580971
Ti       1.97222      9.65310      6.43188         0.391482      0.033116     -0.130307
Ti      13.72129      9.70013      6.26606        -0.334036      0.195303      0.915702
Ti       1.99334      9.65801     10.48631        -0.057608      0.065831      0.277716
Ti      13.68751      9.66298     10.44621        -0.430594      1.504777      1.337070
Ti       5.81560      1.93235      2.06046        -0.337126      0.401910      0.474124
Ti       5.80238      1.84398     14.65186         0.772676      0.034906      1.065507
Ti       5.80394     13.63560      2.20192         0.573624      0.279850     -1.093232
Ti       5.81185     13.63640     14.67176         0.329713     -0.122560      0.037261
Ti       5.87859      1.95695      6.37590        -0.041380      1.043737     -0.232848
Ti       5.81466     13.69039      6.23621        -0.010807     -1.398803      0.216841
Ti       5.78895      1.89515     10.65337        -0.400513      0.023358      0.514238
Ti       5.93217     13.64970     10.45960        -1.058955      0.370410      2.668953
Ti       5.80322      5.93963      2.11026         1.256175     -0.813928      0.121621
Ti       5.92609      5.76493     14.66196        -0.998159      0.745534      0.855128
Ti       5.81266      5.82563      6.35107        -0.120224     -0.037210     -0.033419
Ti       5.80788      5.78725     10.66888         0.167459     -0.370062     -1.579085
Ti       5.86752      9.80914      2.12102        -0.181561     -0.097530      0.969151
Ti       5.79647      9.75010     14.58467         0.485560      0.051254     -0.210735
Ti       5.84244      9.66724      6.31802        -0.425982      0.801969     -0.337743
Ti       5.84673      9.65090     10.50916         0.249616      1.061275      0.221223
Ti       9.68534      1.91480      2.14560         0.660420     -0.552217      0.802528
Ti       9.91703      1.92473     14.74297        -0.784781     -0.032627     -1.499171
Ti       9.79177     13.59344      2.26388         0.458101     -0.190616     -0.394936
Ti       9.74093     13.58024     14.63921         0.206832      0.935300     -0.110920
Ti       9.68903      2.00027      6.38428         0.495307      0.657505     -0.141375
Ti       9.72485     13.66259      6.30039        -0.155756     -0.085408     -0.075025
Ti       9.76537      1.94445     10.56799         0.251926     -0.196841      0.124389
Ti       9.64043     13.62685     10.44551         1.642754      0.272196     -0.043463
Ti       9.67812      5.70300      2.20004        -0.033923      1.887668     -0.368577
Ti       9.78777      5.72059     14.79349         0.200872      1.002090     -1.242477
Ti       9.60047      5.89488      6.33101         0.131246     -0.964357     -0.623475
Ti       9.79194      5.81120     10.58301        -0.633312     -0.302326      0.251586
Ti       9.73474      9.69630      2.21197        -0.051451      0.473725     -0.259516
Ti       9.68808      9.78049     14.75584         0.503883     -1.005303      0.749748
Ti       9.78743      9.79095      6.39311        -0.167224     -0.210495     -1.494493
Ti       9.77172      9.71304     10.51972        -0.129030      0.249269     -1.540152
O       1.81353      1.97424      0.31196         0.260459     -0.076958      0.400119
O       1.94563      1.96101     12.79825        -0.164169     -0.011989     -1.220173
O       1.62759     13.79520      0.34549         0.840117     -0.293136      1.094587
O       1.84904     13.52478     12.89167         0.221780      0.321747     -0.584577
O      13.67344      1.94295      0.38697        -0.256932      0.221274      0.506094
O      13.63715      1.78993     12.88775        -0.098246      0.476447     -1.416318
O      13.69099     13.70712      0.49634         0.079214     -0.180145     -0.831486
O      13.71897     13.58198     12.86841        -0.022118     -0.216471      0.057799
O       2.00868      1.87082      4.49177        -0.090609      0.022061      0.687533
O       2.07073     13.68299      4.49257        -0.542450     -0.183579      0.225473
O      13.58799      1.89053      4.74060         0.062486      0.125686     -0.176329
O      13.48277     13.61814      4.63067         0.362602      0.300080      0.551102
O       2.09120      1.82740      8.75617        -0.444073     -0.021063      0.021888
O       1.89232     13.61690      8.66084         0.182700      0.003943     -0.352796
O      13.80657      2.01147      8.79155        -0.566990     -0.116978      0.114617
O      13.70244     13.44744      8.70480         0.014439      0.246146     -0.366633
O       1.98189      5.85019      0.45410         0.175055     -0.092941      0.492223
O       1.96158      5.91613     12.91622        -0.370336     -0.416936     -0.407012
O      13.55978      5.66767      0.47487         0.326208     -0.014627      0.491446
O      13.67046      5.74428     12.85176         0.304322      0.184744      0.013980
O       1.92346      5.60127      4.67270        -0.128307      0.714796     -0.796786
O      13.63880      5.71711      4.70633        -0.007217      0.030252     -0.972138
O       2.04448      5.63248      8.73327        -0.217088      0.749668     -0.167605
O      13.61705      5.96190      8.81496        -0.217145     -0.298170     -0.127678
O       2.09003      9.78814      0.27311        -0.430323     -0.401883      1.302326
O       2.05408      9.79720     12.82471        -0.504995     -0.245262      0.446719
O      13.55152      9.61960      0.38718         0.165112      0.254048      0.329577
O      13.70688      9.60279     12.89937        -0.049767      0.437264      0.606920
O       1.91953      9.70111      4.65330        -0.120666     -0.179518     -0.831654
O      13.80408      9.74498      4.52129        -0.278382     -0.097932     -0.842824
O       2.04623      9.69607      8.73475        -0.002059      0.071927     -0.875238
O      13.76523      9.81535      8.67954        -0.399487     -0.921535     -0.311816
O       5.80641      1.95788      0.28066         0.323524     -0.412648      0.276967
O       5.88659      1.77365     12.92414         0.295196      0.270348     -0.958159
O       5.95497     13.60112      0.42884        -0.421819      0.020436      0.194489
O       5.67105     13.73078     12.91206         0.338682     -0.171639     -0.183982
O       5.88514      2.13047      4.55804        -0.140615     -0.690077      0.756230
O       5.68094     13.57101      4.42858         0.083989      0.536027      1.113441
O       5.81849      2.00433      8.86576         0.255592     -0.476623     -0.590517
O       5.91454     13.72759      8.74386         0.014154      0.145665     -1.743000
O       5.78495      5.77954      0.30334        -0.173271      0.421307      0.616037
O       5.83627      5.77165     12.92191         0.465148      0.401759     -0.786634
O       5.86357      5.71412      4.54815        -0.153323      0.178685      0.433848
O       5.78206      5.76610      8.83250        -0.090625      0.173717      1.232443
O       5.80838      9.87473      0.38830        -0.074654      0.045067     -0.607528
O       5.98695      9.88243     12.76175        -0.429784     -0.432824      1.047343
O       5.86138      9.72866      4.51073        -0.041533      0.193628      0.574928
O       5.74672      9.77088      8.73710         0.086843     -0.201033     -0.186644
O       9.80068      1.93708      0.37283        -0.073726     -0.107705     -0.095040
O      10.00964      1.84482     12.88580        -0.769927     -0.241436      1.092070
O       9.88395     13.63914      0.49293        -0.320293     -0.117969     -0.517952
O       9.91177     13.76153     12.83808        -0.693725     -0.757153      0.313076
O       9.63685      1.95539      4.58724        -0.168868     -0.236653      0.097241
O       9.79299     13.71928      4.45624        -0.327235     -0.163579      1.342873
O       9.66163      2.05487      8.77413         0.278920     -0.108110     -0.392901
O       9.53058     13.58323      8.62769         0.429738      0.480116      0.893126
O       9.85457      5.78661      0.35651        -0.236957     -0.410366      0.576321
O       9.70947      5.94297     12.98466         0.147917      0.053510     -0.051591
O       9.52451      5.93235      4.51272         0.417818     -0.035578      0.619585
O       9.73955      5.81107      8.79994         0.437386     -0.137827     -0.018901
O       9.64009      9.85549      0.42483         0.964124     -0.384347      0.068384
O       9.70854      9.64676     12.98350         0.060904      0.326168     -1.000161
O       9.64319      9.62236      4.53975         0.004600      0.498771      1.414126
O       9.86936      9.65513      8.69354        -0.291868      0.266617      0.656473
O       3.89712      1.98302      2.34839        -0.042240     -0.602211      0.336079
O       3.91198      1.86526     14.78316        -0.015434      0.103415      0.599996
O       3.75311     13.82187      2.34502         0.477357     -0.505060      0.035438
O       3.92468     13.74146     15.18348        -1.182424     -0.832481     -0.993768
O      15.46756      2.01757      2.46757         0.813085      0.091975      0.319339
O       0.02422      2.01741     14.81791        -0.092213     -0.179282      0.243991
O      15.48071     13.53176      2.68336         1.189361      1.175137     -0.302481
O      15.57328     13.65507     14.98577         0.666782     -0.053085     -0.211471
O       3.84939      2.05512      6.69935         1.556706     -0.623419     -0.388462
O       3.88670     13.53315      6.65841         0.445809      0.393419     -0.065549
O       0.02523      1.81948      6.66517         0.152494      0.271899      0.135247
O      15.54360     13.59891      6.50728         0.837464      0.145876      0.181550
O       3.91523      2.00390     10.87699        -0.320078     -0.471417      0.166071
O       3.86155     13.72176     10.80024        -0.318950     -0.550072     -0.461123
O      15.59399      1.97963     10.88372        -0.256804     -0.019007      0.129164
O      15.57349     13.54618     10.80442         1.057161      0.258954      0.152837
O       3.90379      5.74380      2.56207        -0.188244      0.413365     -0.235223
O       3.88507      5.90838     14.88249         0.250942     -0.126188      0.630953
O      15.55349      5.60913      2.52317         0.534085      0.595933     -0.105556
O      15.60679      5.85217     15.05443        -0.513002     -0.770538     -0.123313
O       3.86913      5.63510      6.69013         0.662250      0.699898     -0.218174
O      15.58159      5.88497      6.88457        -0.209529     -0.145459     -0.422684
O       3.91156      5.65961     11.01614         0.022853      0.848766     -0.520580
O      15.57851      5.93140     10.84915         0.642266     -0.526561     -0.292852
O       3.86155      9.78901      2.43827        -0.738568     -0.422751      0.381595
O       3.95766      9.66119     14.95052        -0.956037      0.501990     -0.374445
O      15.55140      9.58088      2.43051         0.473218      0.528417     -0.235031
O       0.04431      9.76045     15.02167         0.076257     -0.139300     -0.181246
O       3.90155      9.78535      6.52476         0.171035      0.092359      0.607984
O       0.00006      9.71025      6.64895         0.117169     -0.129616      0.266873
O       3.91028      9.81849     10.89205         0.523217      0.010206     -0.177295
O       0.05684      9.50194     10.73750        -0.175886      0.478613      0.322884
O       7.81635      1.78512      2.47419        -0.627880      0.524253     -0.196358
O       7.85331      1.95303     14.96228        -0.338847     -0.457926      0.179710
O       7.73844     13.60591      2.51720         0.472521      0.068900      0.365457
O       7.81937     13.62594     14.97217         0.477914      0.163444     -0.336435
O       7.76882      1.99520      6.83815        -0.677208     -0.575183     -0.528380
O       7.78779     13.77122      6.51129        -0.659354      0.009899     -0.047187
O       7.90342      1.75957     10.90335        -1.244096      0.501868      0.339942
O       7.84144     13.77015     10.80489        -0.557209     -0.162854      0.242994
O       7.68669      5.97642      2.46814         0.413810     -0.589394     -0.517056
O       7.83328      5.90589     14.99501        -0.643904     -0.292264      0.185146
O       7.80222      5.93799      6.82658        -0.779080     -0.056221     -0.465570
O       7.84680      5.94515     10.84567        -0.467205     -0.610104      0.263920
O       7.77498      9.85488      2.36976        -0.220854     -0.311108      0.546215
O       7.75567      9.74418     15.10644         0.481253      0.165356     -0.815002
O       7.78833      9.63448      6.75960         0.139754      0.849493     -0.343208
O       7.86001      9.75053     10.73815         0.002722     -0.109858      0.156488
O      11.63565      1.92622      2.63208        -0.515313      0.117152     -0.361670
O      11.78853      1.98715     15.03205        -0.652194     -0.366994      0.090287
O      11.71481     13.62381      2.55889        -0.431013      0.057221      0.006008
O      11.78534     13.50275     14.92753        -0.229394      0.278378      0.328773
O      11.61913      1.98277      6.64147         0.170864     -0.162939      0.635248
O      11.63855     13.65586      6.81212         0.152600      0.278582     -0.229863
O      11.66152      1.75940     10.83066         1.162895      1.152693     -0.342028
O      11.77206     13.51408     10.72137        -0.810591      0.163708      0.035456
O      11.65678      5.77044      2.55403        -0.193576     -0.323151      0.086065
O      11.73922      5.68755     14.96349        -0.184059      0.453686      0.349894
O      11.63916      5.80919      6.69860         0.145786      0.188276      0.115176
O      11.68401      5.81979     10.91418        -0.225655     -0.087972     -0.150190
O      11.67741      9.76937      2.72821         0.447083     -0.784074     -1.053449
O      11.75059      9.84146     15.03223        -0.630658     -0.354967     -0.224582
O      11.72128      9.69843      6.53435        -0.461964      0.062391      0.177701
O      11.71611      9.72732     10.74965        -0.256021     -0.367442      0.471210
O       1.98510      3.82838      2.41353        -0.282375      1.195790      0.367047
O       2.00980      3.88293     14.97900        -0.088793      0.096704     -0.354073
O       1.78663      0.06985      2.34974        -0.204251     -0.918126      0.593690
O       1.98649      0.03407     14.80166        -0.487427     -0.964728      0.192670
O      13.46849      3.82365      2.74290         0.560366      0.420659     -0.752114
O      13.63268      3.84896     14.90403         0.606064     -0.706880      0.186957
O      13.61986      0.01897      2.54062         0.088955     -0.105215      0.185228
O      13.71068     15.58684     14.94132        -0.266792     -1.144198      0.267443
O       1.89981      3.82459      6.66723        -0.442579     -0.386734      0.308118
O       2.09527     15.54478      6.70260        -0.427752     -0.217425     -0.290950
O      13.60952      3.86599      6.93408        -0.017635      0.439971     -0.836583
O      13.69940     15.60438      6.95960        -0.899804     -0.542148     -0.760312
O       1.92317      3.89243     10.89644        -0.250781      0.082724      0.173692
O       1.84122      0.00712     10.90371         0.417566     -0.948738     -0.364273
O      13.48867      3.89896     10.92196         1.042472     -0.588877     -0.610528
O      13.63298     15.57726     10.66955         0.486117     -0.060147      0.227212
O       1.85078      7.72368      2.55838         0.616197      0.041330     -0.279835
O       1.80405      7.77484     14.97875         0.806019      0.563816      0.130620
O      13.60756      7.70053      2.45437         0.066031     -0.006922      0.365357
O      13.71365      7.71024     15.03651        -0.411491      0.502958      0.034986
O       2.10099      7.69679      6.67323        -0.354158      0.724444      0.126384
O      13.64666      7.77729      6.59989        -0.105957      0.084623      0.479559
O       2.19326      7.74006     10.68138        -0.152280      0.001567      0.231613
O      13.65988      7.71109     10.94245        -0.498966      0.917783     -0.508160
O       1.83078     11.67360      2.29352         0.197055      0.208249      0.649900
O       1.98140     11.71585     14.97811        -0.010938      0.103026     -0.121520
O      13.62993     11.66817      2.43822         0.067334     -0.698387      0.234064
O      13.81408     11.59331     15.11013        -0.532136      1.176330     -0.438470
O       1.93388     11.68877      6.73920         0.008625      0.171544     -0.387868
O      13.53049     11.65047      6.55804         0.497808      0.338978      0.429201
O       1.93295     11.68197     10.79624        -0.016407      0.023000     -0.242562
O      13.62243     11.56267     10.76570         0.665027     -0.384986      0.581642
O       5.89884      3.82667      2.30278         0.094373      0.299777      0.440663
O       5.83555      3.86073     15.03388         0.113491      0.139916     -0.556998
O       5.82385     15.57152      2.51483        -0.038036      0.597228      0.147403
O       5.87898     15.48499     15.12218         0.084180      1.849432     -0.296558
O       5.90453      3.95323      6.73275         0.197462     -1.141450     -0.095570
O       5.75038      0.03540      6.50739        -0.000269      0.019235      0.190321
O       5.96499      3.86153     11.01759         0.225955     -0.202960     -0.422219
O       5.80666     15.58713     11.00666         0.213969     -0.053573     -0.795143
O       5.78834      7.85250      2.37201        -0.388759     -0.504981     -0.034680
O       5.83175      7.87899     15.04583         0.312220     -0.893014     -0.449725
O       5.77224      7.78816      6.60076        -0.098976     -0.381942      0.249034
O       5.81019      7.83448     10.86159        -0.263612     -0.899826      0.078615
O       5.66186     11.75539      2.51178         0.218659     -0.616664     -0.036554
O       5.85476     11.73790     14.87873        -0.233076     -0.890939      0.355368
O       5.93033     11.75098      6.68274        -0.110649      0.194545     -0.178465
O       6.00329     11.78392     10.81502        -0.426759     -0.031892     -0.191218
O       9.61105      3.90721      2.46202         0.061016     -1.292101      0.066389
O       9.69284      3.85448     14.86223         0.170928     -0.136126      0.507627
O       9.72731     15.57279      2.46857         0.092818      0.251538      0.302855
O       9.79566     15.53666     14.90411         0.285214      0.403518      0.804635
O       9.60923      3.95599      6.52545         0.287078     -0.330622      0.575940
O       9.74995      0.00966      6.65226        -0.196480      0.056365      0.323881
O       9.67806      3.82593     11.05118         0.457493      0.812344     -0.862084
O       9.82049     15.57713     10.68968        -0.081990     -1.130943      0.060463
O       9.75761      7.70319      2.41257         0.024095      1.170704      0.162390
O       9.83974      7.81071     15.07722        -0.112044      0.518075      0.098429
O       9.71110      7.82411      6.70840         0.615782     -0.124568      0.021839
O       9.80360      7.75234     10.86833        -0.094997      0.758276     -0.039284
O       9.75078     11.62747      2.63779         0.071172      0.613481     -0.141329
O       9.71864     11.71426     14.94596         0.086715     -0.476265     -0.105727
O       9.70505     11.78267      6.72626        -0.070258     -1.173346     -0.759226
O       9.73908     11.69938     10.88856        -0.039709     -0.273326     -0.280681
