  # total energy = -7881.59017110 
CRSYTAL
PRIMVEC
    15.6080000000000005    0.0000000000000000    0.0000000000000000
     0.0000000000000000   15.6080000000000005    0.0000000000000000
     0.0000000000000000    0.0000000000000000   16.6239999999999988
PRESSURE
-0.448345 -0.334041 -0.301399 -0.073415 -0.148766 0.027072
PRIMCOORD
320 1
Pb       4.05276      3.97816      4.25023        -1.077145     -0.061963     -0.535708
Pb       3.95503      3.97794     16.52215        -0.499071     -0.135435      0.562832
Pb       3.93757      0.11151      4.05010        -0.185341     -0.410137      0.172391
Pb       3.82918      0.00993     16.44461         0.240947     -0.374617      0.295515
Pb       0.04014      3.85650      4.14755         0.099306     -0.052679      0.214082
Pb      15.58536      3.76219     16.60563        -0.338237      0.578952     -0.031011
Pb      15.49158      0.01146      4.08185        -0.046005     -0.233873      0.248560
Pb      15.56312      0.04480     16.59330        -0.405476     -0.644174     -0.334251
Pb       3.81591      3.81676      8.24603         0.056876      0.175426      0.006589
Pb       3.97140     15.59867      8.15147        -0.315319      0.140223      0.357846
Pb      15.52591      3.90060      8.30934         0.002208      0.156879      0.037488
Pb       0.01463     15.56399      8.23963        -0.228530     -0.007419      0.113253
Pb       3.71380      3.92814     12.64463         0.024928     -0.227674     -0.557030
Pb       3.86152     15.49649     12.55441        -0.049369     -0.063122     -0.306424
Pb      15.59893      3.96011     12.61389        -0.290719      0.242080     -0.772763
Pb       0.17004     15.56190     12.46675        -0.329651      0.192443     -0.014244
Pb       3.78009      7.89657      4.00766         0.291956     -0.862567      0.385185
Pb       3.94346      7.66572     16.57310        -0.603429      0.514514      0.734470
Pb       0.07788      7.86664      4.12301         0.044482     -0.591670      0.208119
Pb      15.50615      7.73652     16.59144         0.337281      0.221091      0.226545
Pb       3.85911      7.74274      8.34066        -0.231390      0.063164     -0.378581
Pb      15.34625      7.70635      8.53124         0.723399      0.025298     -0.558588
Pb       3.96309      7.82835     12.39809        -0.147773      0.155306      0.122010
Pb      15.40675      7.73808     12.51996         0.498382      0.306209     -0.418981
Pb       3.82960     11.68910      4.05817         0.178060      0.188169     -0.010543
Pb       3.93228     11.64353     16.56096        -0.119778      0.347397     -0.072131
Pb      15.56095     11.71556      4.11821         0.029350      0.220184     -0.050264
Pb      15.53839     11.77743     16.60354        -0.260258     -0.052016      0.009343
Pb       3.84983     11.88998      8.29706        -0.081477     -0.615849      0.034695
Pb       0.04960     11.63924      8.11669        -0.243637      0.257805      0.276565
Pb       3.93912     11.62433     12.24860         0.024676      0.126946      0.869547
Pb       0.08591     11.60059     12.41930        -0.023306     -0.139920      0.085472
Pb       7.78016      3.66861      4.14221         0.375368      0.421944     -0.193128
Pb       7.86525      3.93393     16.54114        -0.045265      0.043224      0.509711
Pb       7.80970     15.48518      4.15453         0.045553     -0.431435     -0.359644
Pb       7.83125      0.12704     16.55826        -0.163476     -1.055847      0.466714
Pb       7.67097      3.79347      8.53974         0.007307      0.347677     -0.423606
Pb       7.81870     15.60758      8.25719         0.021891      0.014543      0.218123
Pb       7.78489      3.61120     12.49328         0.284695      0.614801      0.569056
Pb       7.79049     15.53357     12.48849         0.240600     -0.518199     -0.185705
Pb       7.94289      7.82065      4.13656        -0.944677      0.248581      0.248139
Pb       7.66764      7.79826     16.55867         0.516763      0.150083      0.369528
Pb       7.87594      7.85572      8.17158        -0.173823     -0.353112      0.062880
Pb       7.88254      7.61112     12.38182         0.059588      0.819770      0.846374
Pb       7.87470     11.65980      4.09160        -0.263467      0.120712      0.285588
Pb       7.77284     11.81063     16.48748        -0.185929     -0.188384      0.175262
Pb       7.74210     11.71179      8.20055         0.177195     -0.232363     -0.045758
Pb       7.83394     11.56297     12.37491        -0.079370      0.748506      0.513027
Pb      11.76746      3.76208      4.29542         0.256918      0.118278     -0.613391
Pb      11.71467      4.10824      0.28334         0.167877     -0.405521     -0.651531
Pb      11.41332     15.53434      4.14587         0.460531     -0.357420      0.091515
Pb      11.66591     15.59085     16.49599         0.491637     -0.000943      0.431730
Pb      11.65783      4.13955      8.42985         0.003389     -0.623958     -0.199736
Pb      11.63461      0.14685      8.38093         0.102233     -0.242256     -0.256119
Pb      11.83237      3.74585     12.49238        -0.182185      0.475451     -0.436018
Pb      11.54127     15.50914     12.35376         0.533225      0.412464      0.705773
Pb      11.63101      7.66377      4.06167         0.199611      0.267303      0.367983
Pb      11.69401      7.85401      0.02271        -0.208004      0.134165      0.323109
Pb      11.65838      7.81388      8.31236        -0.431902     -0.277205     -0.259765
Pb      11.46384      7.99957     12.50110         0.599895     -0.525088      0.244144
Pb      11.84287     11.37117      4.21330        -0.391865      0.899649      0.083347
Pb      11.78163     11.65240     16.59164        -0.114942     -0.115585      0.075936
Pb      11.78024     11.89671      8.42904         0.192425     -0.144155     -0.823270
Pb      11.78747     11.77029     12.41010        -0.294868     -0.546267      0.614769
Ti       1.88886      1.89153      2.19748         0.256173      1.181928      0.481863
Ti       1.93879      1.99211     14.71205        -0.100574     -0.523246     -0.583127
Ti       1.87492     13.67430      2.18592        -0.723146     -0.359468     -0.577270
Ti       1.93693     13.55951     14.64415        -0.412087      0.369950      0.684649
Ti      13.61911      1.85179      2.23973        -0.239166      0.796386     -0.773331
Ti      13.66379      1.98347     14.63357        -1.059787     -0.582924      1.360767
Ti      13.48872     13.59479      2.27078         0.631306     -0.092016     -0.475060
Ti      13.60612     13.65676     14.53618         0.428048     -0.032072      1.683383
Ti       1.86572      1.95749      6.38730        -0.176701      0.672923      0.035170
Ti       1.92670     13.71477      6.23632        -1.117446     -0.532425      0.111733
Ti      13.60340      1.89154      6.50314        -0.238375      0.542010     -0.146983
Ti      13.55592     13.64206      6.31797         0.350250     -0.534697      0.703722
Ti       1.91495      2.00034     10.56721         0.047783     -0.436394     -0.673406
Ti       1.92265     13.65406     10.49285        -0.041638     -0.279997     -0.118637
Ti      13.69016      1.86700     10.55991        -0.158269      0.699534     -0.406983
Ti      13.71854     13.64734     10.54877         0.265362      0.078040     -1.332241
Ti       1.93171      5.79473      2.21134         0.151830      0.171758     -0.464542
Ti       1.87172      5.93331     14.71444        -0.763585     -0.671820      0.709989
Ti      13.68741      5.73819      2.22617         0.010634      0.911696      0.164141
Ti      13.56939      5.86790     14.71418         0.507107     -0.556073      0.020233
Ti       1.86343      5.93999      6.32943        -0.718554      0.024339     -0.398570
Ti      13.57714      5.80848      6.37002         0.332478      0.022913     -0.111845
Ti       1.96299      5.89314     10.59679        -1.089938      0.188375     -0.622843
Ti      13.57781      5.84527     10.60182         0.175459     -0.233203      0.680590
Ti       1.92492      9.80091      2.12123        -0.369176     -0.704483     -0.928781
Ti       1.96041      9.79233     14.66242        -0.664976     -0.646415      0.517384
Ti      13.71439      9.61602      2.27730        -0.418191      0.540387     -1.532895
Ti      13.65069      9.68085     14.69142        -0.639567      1.004651     -0.298100
Ti       2.00268      9.76842      6.25878        -1.782992     -0.829174      0.974717
Ti      13.65589      9.61448      6.41958         0.504704      0.982215      0.367873
Ti       2.04137      9.68291     10.45645        -1.639160      0.367045      0.653635
Ti      13.67546      9.79628     10.57200         0.346375     -0.678679      1.378927
Ti       5.80905      2.00170      2.13104         0.056576     -1.094292      1.155245
Ti       5.89788      1.96038     14.73359        -0.436831     -0.760883     -0.123144
Ti       5.76576     13.70718      2.15703         1.073777     -0.193859     -0.559783
Ti       5.83762     13.63437     14.65133         0.020421      0.006768     -0.379157
Ti       5.92178      1.92924      6.28393        -0.284854      0.123282      0.363249
Ti       5.79973     13.62010      6.25509         0.571882     -0.120031      0.055588
Ti       5.72772      1.83650     10.68035         0.279132      0.411313     -0.029734
Ti       5.77951     13.63196     10.49556         1.364839     -0.217554      0.001414
Ti       5.87489      5.82475      2.26899        -0.939625      1.440787     -0.343649
Ti       5.75891      5.91991     14.63475         1.547498     -0.626957      0.024050
Ti       5.71395      5.86019      6.35328         1.555665     -0.034245      0.134420
Ti       5.87214      5.64958     10.68917        -0.086640      0.515820     -1.278225
Ti       5.80093      9.81965      2.19713         0.841828     -0.665483     -0.134647
Ti       5.77535      9.77150     14.67772         1.271635      0.354032     -0.993495
Ti       5.73655      9.74786      6.32828         0.902593     -0.320985     -0.170243
Ti       5.97669      9.63751     10.50574         0.446279      0.275568     -0.224772
Ti       9.74447      1.91702      2.12701         0.042915     -0.044816      0.208741
Ti       9.84226      1.98956     14.74184         0.416537     -1.235178     -0.596826
Ti       9.68110     13.57257      2.13424        -0.135347      0.353600      0.626333
Ti       9.77000     13.57974     14.68968        -0.393650      0.569073     -0.141435
Ti       9.76878      2.03373      6.39245         0.244132     -0.877832      0.777584
Ti       9.69188     13.65603      6.42942         0.742920     -0.020558     -1.191225
Ti       9.78394      1.91380     10.57822        -0.296355      0.114048     -0.510865
Ti       9.79444     13.59427     10.44170        -1.537391      0.305782     -0.483365
Ti       9.71089      5.78444      2.24034         0.321710      0.463503     -0.301117
Ti       9.73012      5.83853     14.75792         0.339561      0.613593     -0.624964
Ti       9.59600      5.76479      6.26837         0.528342      1.141712      0.413144
Ti       9.72794      5.71129     10.68557         0.984525      0.187964     -0.460566
Ti       9.77992      9.79425      2.16788        -0.109894     -0.803336     -1.015551
Ti       9.70176      9.70185     14.79151         0.313265      0.248342     -0.073484
Ti       9.79232      9.77627      6.31711        -0.254159      0.093778      0.118591
Ti       9.82146      9.80297     10.42907        -0.522177     -0.545913     -0.456088
O       1.86594      1.92980      0.40976        -0.051972     -0.183174     -0.503392
O       1.97629      1.93329     12.89089        -0.008056      0.052300      0.609887
O       1.79110     13.57104      0.35005         0.210045      0.414877      1.157736
O       2.01219     13.63970     12.88628        -0.301630     -0.033903     -1.062541
O      13.61612      2.03357      0.45004         0.308181     -0.367748      0.050983
O      13.49870      1.97220     12.91198         0.608465     -0.092098     -1.490585
O      13.64077     13.51680      0.48296        -0.285661      0.288527      0.239990
O      13.48381     13.58326     12.80164         0.222511      0.449516     -0.730468
O       1.74736      1.96885      4.62052         0.224347     -0.091861      0.290658
O       1.86822     13.57659      4.47570         0.334656      0.403426      0.118236
O      13.61044      2.06072      4.72504        -0.096692     -0.028161     -0.964192
O      13.53792     13.64883      4.54784         0.076702      0.085761      0.108188
O       1.84938      1.93123      8.76879         0.295997     -0.016968      0.018648
O       2.00493     13.51356      8.71587        -0.151136      0.539744     -0.259068
O      13.53790      1.84846      8.75474         0.862263      0.077463      0.719890
O      13.73047     13.49786      8.69012        -0.261923      0.420642      1.139890
O       1.99092      5.84325      0.38975         0.032434     -0.409951      0.340975
O       1.78005      5.70099     12.94670         0.682626      0.332087     -0.921823
O      13.63410      5.85743      0.40827        -0.206664     -0.299450      0.349539
O      13.74938      5.84273     12.92848        -0.236982     -0.232513     -0.155745
O       1.72011      5.95252      4.50801         0.459749     -0.706629      0.597841
O      13.61472      5.85141      4.59530        -0.089666     -0.156548     -0.306942
O       1.99332      6.16658      8.80636         0.266664     -0.922220      0.358459
O      13.51586      5.83285      8.82458         0.217713      0.218152     -0.849959
O       1.93370      9.75014      0.32642         0.371386      0.147554      0.700690
O       1.87987      9.78233     12.91512         0.365559     -0.076969     -0.347272
O      13.62512      9.63457      0.46164        -0.038804      0.207215      0.278328
O      13.56017      9.76401     12.90325         0.257528     -0.156781      0.036673
O       1.74646      9.74658      4.49016         0.596516      0.021397     -0.482391
O      13.65905      9.60190      4.63666        -0.068381      0.285707     -0.775642
O       2.06496      9.72275      8.70816        -0.255468     -0.477485     -0.009581
O      13.53305      9.60719      8.85422         0.077164      0.595106     -1.278061
O       5.68434      1.88175      0.41210         0.192840      0.316960     -1.465403
O       5.89737      1.80501     12.97032        -0.059078      0.107375     -0.602255
O       5.88818     13.67533      0.33544        -0.389920     -0.084123      1.110298
O       5.79582     13.66127     12.85979        -0.271934      0.030203     -0.667364
O       5.91273      1.98746      4.49887        -0.059122     -0.060531      0.258518
O       5.78486     13.61536      4.49663        -0.251047      0.108456      0.020865
O       6.11299      1.94404      8.95311        -0.834506      0.103721     -1.250250
O       5.76723     13.68114      8.69378        -0.048459     -0.263482     -0.037413
O       5.60672      5.97114      0.45581         0.514065     -0.769238      0.375177
O       6.01550      5.98238     12.89170        -1.002423     -0.697221      0.168850
O       5.72120      5.74418      4.56577         0.267773     -0.040809     -0.181104
O       5.80338      5.49924      8.83659         0.171431      0.568267      1.014517
O       5.83253      9.72806      0.37063        -0.228257      0.072563      0.761485
O       5.86722      9.76930     12.87695        -0.103672     -0.068781     -0.292121
O       5.74128      9.82161      4.57571        -0.213174     -0.121071      0.056266
O       6.03696      9.59145      8.73687        -0.399389      0.366262      0.349116
O       9.79143      1.96390      0.35656         0.099513      0.073971      0.677552
O       9.72970      1.70745     12.91226         0.340224      0.744721      0.798079
O       9.53364     13.61804      0.36465         0.337939     -0.041635      0.061042
O       9.74579     13.59397     12.89116         0.291856      0.391126     -0.165329
O       9.67504      1.90016      4.58590         0.250744      0.272600     -0.166580
O       9.73825     13.74983      4.57368        -0.139393      0.177349      0.982011
O       9.70635      1.96047      8.77413        -0.112353     -0.159273      0.067441
O       9.77014     13.66632      8.60633        -0.346160     -0.479965      1.017886
O       9.83653      5.79146      0.41890        -0.290979     -0.245445      0.634300
O       9.81377      5.99123     12.94803        -0.348211     -0.645074      0.713072
O       9.60555      5.93205      4.49400         0.150868     -0.609373     -0.293015
O       9.73671      5.66342      8.91379        -0.115385      0.275663     -0.409492
O       9.86090      9.68633      0.28934        -0.899908      0.400653      2.034704
O       9.80170      9.78395     13.00680         0.050489     -0.201359     -0.451194
O       9.82838      9.92425      4.48383        -0.281995     -0.877975      0.903913
O       9.75808      9.79739      8.61759        -0.037493     -0.125923      0.514376
O       3.86175      1.81044      2.53288        -0.123433      0.279713     -0.167813
O       3.85614      1.90086     15.00315        -0.198742     -0.199980     -0.196320
O       3.84422     13.72441      2.41289        -0.112428      0.127726      0.121355
O       3.85191     13.58102     14.85086        -0.365189      0.421786      0.853769
O      15.55354      2.03640      2.54564        -0.029434     -0.448283     -0.089119
O      15.50868      1.79604     14.96467         1.534267      1.063329      0.080324
O      15.47258     13.60350      2.54112         1.186177      0.166702      0.123925
O      15.52237     13.39756     14.84449         0.113001      0.644310     -0.041402
O       3.86760      1.87536      6.60103         0.493744      0.241980      0.202308
O       3.84302     13.61994      6.62256         0.139213      0.123096     -0.071281
O      15.48610      1.98353      6.84716         0.987087     -0.459227     -0.216835
O       0.03966     13.65484      6.64173        -0.331076      0.264872     -0.123027
O       3.83135      1.88289     10.84656         1.002730      0.138093      0.197551
O       3.88761     13.51886     10.79312        -0.425785      0.477262      0.005406
O       0.05210      1.91657     10.95722        -0.773222     -0.281237     -0.056977
O      15.59297     13.69528     10.87250         0.835599     -0.084496     -0.027859
O       3.75554      5.81450      2.57625         1.037239     -0.330562      0.292202
O       3.86953      5.83307     14.98163         0.233755      0.203705     -0.588898
O      15.54849      5.85876      2.41661         0.053720     -0.463252      0.165945
O       0.00318      5.81603     15.04575        -0.433192      0.102817      0.155282
O       3.87494      5.78243      6.66776        -0.310946     -0.264593      0.195105
O      15.60772      5.91525      6.72688        -0.459115     -0.077941      0.338648
O       3.93126      5.91126     10.97366         0.074081     -0.196607      0.054247
O      15.59644      5.86161     10.81030         0.340238     -0.090999      0.210462
O       3.86250      9.70576      2.59347        -0.111292      1.072411     -0.646743
O       3.93266      9.82107     14.86440        -1.017445     -0.631777      0.379251
O       0.00353      9.88038      2.34325        -0.119529     -0.599455      0.660362
O      15.50563      9.76369     14.99498         0.768666      0.028410     -0.117809
O       3.78724      9.84151      6.68503         1.812898     -0.448795     -0.252134
O      15.54379      9.62287      6.79351         0.235552     -0.087780     -0.234110
O       3.93417      9.70504     10.77878         0.625102     -0.851724      0.000240
O      15.58168      9.71120     10.91827        -0.151282     -0.155535     -0.509245
O       7.76900      2.12344      2.26567         0.326239     -0.252595      0.691583
O       7.86385      1.97051     15.09130        -1.546544      0.401213     -0.453500
O       7.75049     13.57357      2.60821         0.173584     -0.031401     -0.359937
O       7.70004     13.63380     14.82321         1.461536     -0.251885      0.556554
O       7.84496      1.79835      6.60919        -0.783459      0.424076      0.138882
O       7.73668     13.64737      6.55020         0.196133      0.190291      0.469390
O       7.87193      1.95928     10.94784        -0.640217     -0.441802     -0.077162
O       7.77728     13.60177     10.81338         0.147414      0.189431     -0.241590
O       7.76402      5.84398      2.33382        -0.718081     -0.210255      0.414625
O       7.73094      5.81323     15.16868        -0.079554     -0.193726     -0.566534
O       7.78791      5.86974      6.60180        -0.981409     -0.301499      0.313954
O       7.86584      5.51401     11.05194        -0.675528      0.666216     -0.636363
O       7.72978      9.73631      2.65515         0.051185      0.302249     -0.853451
O       7.80544      9.79974     14.92263        -0.455742     -0.091324      0.530731
O       7.77284      9.61016      6.55425         0.188324      0.601561      0.121502
O       7.94652      9.84737     10.88180        -1.470984     -0.578714     -0.576894
O      11.68957      1.87881      2.51748        -1.090292      0.229221      0.238477
O      11.71250      1.80753     14.95121        -0.360096      0.567900      0.056972
O      11.58830     13.68871      2.53746         0.329702      0.217887     -0.376583
O      11.65363     13.81362     15.00105        -0.197318     -0.570238     -0.288503
O      11.71671      2.05291      6.85394        -1.291981      0.057182     -0.657308
O      11.70977     13.55392      6.73831        -0.030295      0.044290     -0.240893
O      11.75276      2.00237     10.82381        -0.160817     -0.785712      0.346137
O      11.67953     13.54350     10.68182         0.404370      0.238662      0.133381
O      11.59966      5.88350      2.61434         0.926077     -0.150698     -0.525681
O      11.71282      5.89240     15.07969        -0.447613     -0.472398     -0.368392
O      11.62831      5.82213      6.67572         0.185640     -0.116929     -0.027878
O      11.69955      5.79552     10.93037        -0.121579     -0.229605      0.019617
O      11.65497      9.57389      2.37473         0.443444      0.544717      0.822893
O      11.67818      9.54040     15.06097         0.221943      0.517279     -0.334414
O      11.66928      9.73056      6.63433         0.060921     -0.024678      0.046321
O      11.68050      9.79777     10.96008         0.093445      0.064871     -0.793245
O       1.91643      3.78766      2.61728         0.039278      0.749545     -0.461099
O       1.94176      3.89578     14.90325        -0.040760     -1.005806      0.471434
O       1.78875      0.00068      2.60983         0.303731     -0.461482     -0.450709
O       1.77008     15.54976     14.92557         0.673548     -0.014022      0.223096
O      13.53481      3.88721      2.42931        -0.139160      0.391524      0.625772
O      13.72087      3.90434     14.91725        -0.268506     -0.191064      0.255009
O      13.68120      0.03913      2.50907        -0.160393     -1.059456      0.100031
O      13.65906     15.58187     14.98442         0.214954     -0.511960      0.024305
O       1.85651      3.90955      6.76330         0.309335     -0.076357     -0.173192
O       1.83758      0.04762      6.62083         0.445027     -0.982914      0.141031
O      13.70269      3.96759      6.70490        -0.294693     -0.157341      0.364654
O      13.45798      0.00677      6.63313         0.788536     -0.781736      0.217544
O       2.00491      3.88330     10.81147         0.064381      0.822402      0.213218
O       1.99025     15.55165     10.77761        -0.163844     -0.397838      0.413393
O      13.75351      3.84816     10.77922        -0.392434      0.051576      0.666938
O      13.68513     15.55193     10.86442        -0.216109      0.242941     -0.056343
O       1.97446      7.78868      2.41513        -0.579062      0.523769      0.195766
O       1.91885      7.74130     15.00274         0.197496      1.351704     -0.299026
O      13.72422      7.77958      2.60344        -0.306894     -0.237603     -0.301206
O      13.64338      7.77469     14.96256         0.400277     -0.177973      0.100171
O       1.95819      7.78061      6.48052         0.620352      0.557836      0.558327
O      13.59206      7.74700      6.86127        -0.228805     -0.033995     -0.241189
O       1.87327      7.78262     10.99582         0.788213      0.290198     -0.117086
O      13.62601      7.77958     10.84871         0.077989      0.227002      0.173263
O       1.92949     11.70607      2.50987         0.312616      0.468963     -0.189909
O       1.96125     11.62836     15.01632        -0.084978      0.602804     -0.132616
O      13.60267     11.67237      2.59301        -0.429793     -0.594585      0.034026
O      13.38028     11.73045     14.94323         0.396910     -0.589119     -0.109989
O       1.84679     11.62010      6.50749         0.171268      1.294421      0.313978
O      13.74346     11.65474      6.62874        -0.470155     -0.101581     -0.003371
O       1.86435     11.61455     10.72999         0.450793      0.404296      0.468675
O      13.79722     11.75383     10.93798        -0.906937     -0.918194     -0.549314
O       5.70666      3.87283      2.54767         0.188562      0.529436     -0.235945
O       5.66125      3.87389     14.85112         0.733450     -0.003048      0.369936
O       5.95947      0.01231      2.53033        -0.506467      0.016338     -0.009309
O       5.82468     15.54901     14.93555        -0.253479      1.123688      0.417832
O       5.88438      3.80533      6.68593        -0.142953     -0.278123     -0.218405
O       5.85661     15.54609      6.60037        -0.384757      0.644536      0.116446
O       5.80903      3.80603     11.05323        -0.104370     -0.028841      0.248676
O       5.79373     15.58216     10.73945        -0.022832     -0.706960      0.754110
O       5.67264      7.78499      2.57561         0.680558     -0.350148     -0.299512
O       5.88142      7.79182     14.91740        -0.467674      0.252349      0.348111
O       5.79064      7.74754      6.71081        -0.368132     -0.112724     -0.190030
O       6.11918      7.65823     10.87943        -0.971429      1.032577     -0.724356
O       5.82530     11.73144      2.47071        -0.631082     -0.367675     -0.153218
O       5.77708     11.69927     15.01704         0.278232     -0.245914      0.016070
O       5.89396     11.65173      6.65824        -0.410495      0.444411      0.163946
O       5.79391     11.64895     10.73666         0.454724     -0.369713     -0.034830
O       9.80722      3.91833      2.52366        -0.223775     -0.959213     -0.062797
O       9.76669      3.88811     15.09086         0.015619      0.097354     -0.466913
O       9.59183     15.52119      2.50829         0.260042      1.576737     -0.303396
O       9.66809      0.01594     15.16416         0.114605     -0.232322     -0.725878
O       9.69866      3.88799      6.63621        -0.080553     -0.220146     -0.240888
O       9.85147     15.60458      6.80977        -0.227633      0.322026     -0.656797
O       9.85145      3.77277     10.90814        -0.112980      0.693327      0.602800
O       9.79381     15.56186     10.80305        -0.109948     -0.511532     -0.211492
O       9.63622      7.87043      2.62457         0.339455     -0.584273     -0.671614
O       9.63915      7.70712     15.15382         0.061085      0.373478     -0.589694
O       9.69892      7.72728      6.64627         0.491253      0.763569     -0.094345
O       9.67607      7.81561     10.82006         0.423583     -0.184514     -0.200757
O       9.83748     11.68362      2.48882        -0.562668     -0.239288     -0.193415
O       9.81979     11.72189     15.02509        -0.099998     -0.146257     -0.034854
O       9.70595     11.76411      6.53424        -0.263633     -1.085801      0.572401
O       9.76699     11.70209     10.73400         0.071821      0.133598      0.068555
