  # total energy = -7875.21291869 
CRSYTAL
PRIMVEC
    15.6080000000000005    0.0000000000000000    0.0000000000000000
     0.0000000000000000   15.6080000000000005    0.0000000000000000
     0.0000000000000000    0.0000000000000000   16.6239999999999988
PRESSURE
-0.096125 0.057976 -0.969309 -0.140736 0.056756 -0.034325
PRIMCOORD
320 1
Pb       4.02930      3.98005      4.13018        -0.188799     -1.080510      0.024739
Pb       4.10104      4.08001      0.16839        -0.441045     -0.364935     -0.378877
Pb       3.87244      0.03411      3.98972         0.345568      0.260932     -0.219670
Pb       3.75677     15.57250     16.60518         0.440806      0.177678     -0.025128
Pb       0.10199      3.82934      4.20033        -0.272448     -0.274307     -0.521505
Pb      15.49678      3.79903     16.59566         0.114881      0.037296      0.479673
Pb      15.56520     15.53245      4.01129        -0.439617      0.002573      0.032590
Pb      15.49948     15.56564     16.55402         0.101830      0.009727      0.290069
Pb       3.62273      3.73881      8.35210         0.793666      0.607258     -0.243896
Pb       3.88863      0.08175      8.26205        -0.265209     -0.303864      0.008841
Pb      15.52580      3.77782      8.29812        -0.472402      0.538980     -0.073677
Pb       0.13286     15.58397      8.21610        -0.811229     -0.326383     -0.244788
Pb       3.88695      3.93195     12.41647        -0.424957     -0.115795      0.184255
Pb       3.83503     15.40467     12.32232         0.122139      0.620582      0.715655
Pb      15.60063      3.81577     12.45475         0.468752      0.568659      0.079933
Pb      15.58820      0.31740     12.65678        -0.046292     -0.685513     -0.188482
Pb       3.79006      7.88019      4.29743         0.344480      0.052576     -0.362021
Pb       3.81357      7.74424     16.60174         0.414025     -0.122897     -0.236901
Pb       0.23434      7.90999      4.27318        -0.874763      0.104325     -0.508604
Pb       0.04377      7.73392     16.61672        -0.304745      0.163317      0.344971
Pb       4.02587      7.65152      8.16847        -0.313908      0.787442     -0.171790
Pb      15.34446      7.73610      8.63219         0.272341     -0.174941     -0.487054
Pb       3.92540      7.89043     12.41605         0.012064     -0.468235      0.394242
Pb      15.56977      7.99754     12.62132         0.009173     -0.747162     -0.559163
Pb       3.81641     11.67337      4.06641        -0.014259      0.284809     -0.128426
Pb       3.90932     11.63733     16.45975        -0.316345      0.396681      0.246467
Pb      15.57453     11.67684      4.04249         0.053714     -0.354967      0.309315
Pb      15.53506     11.85701     16.56431         0.350246     -0.480414      0.037377
Pb       3.84379     11.64479      8.04001        -0.672510      0.255993      0.686592
Pb      15.58470     11.60079      8.31551        -0.010088      0.376546     -0.181596
Pb       4.04660     11.66613     12.26857        -0.184287     -0.238988      0.869019
Pb       0.24525     11.54071     12.31242        -1.227452      0.427502      0.280090
Pb       7.84635      3.69006      4.20132        -0.390015      0.122295      0.213942
Pb       7.83315      4.00328      0.10761        -0.255563      0.208389     -0.337125
Pb       7.74756     15.41033      3.98939         0.104574      0.902643      1.011049
Pb       7.90058      0.19053      0.12863        -0.556957     -0.126041     -0.424614
Pb       7.55106      3.96761      8.36970         0.616329     -0.431101     -0.182557
Pb       7.90046     15.51476      8.32282        -0.148322      0.736206     -0.326328
Pb       7.64794      3.73613     12.42469         0.631522      0.425359     -0.422820
Pb       7.63323     15.55871     12.56896         0.281017     -0.048681     -0.238218
Pb       7.69398      7.85902      4.15818         0.583923     -0.063582      0.195893
Pb       7.78182      8.02042     16.57366        -0.252107     -0.785071      0.556878
Pb       7.83215      7.74478      8.24562        -0.220196      0.127133      0.032093
Pb       7.81326      7.54825     12.37461        -0.079263      1.063225      0.149556
Pb       8.01005     11.70411      4.32934        -0.405215      0.279238     -0.132367
Pb       7.60838     11.70734     16.61591         0.422443     -0.370472      0.258892
Pb       7.61120     11.74833      8.09242         0.859740      0.103076      0.476926
Pb       7.67077     11.45780     12.39110         0.613076      0.363344      0.313531
Pb      11.83812      3.89053      4.41618        -0.205776     -0.145552     -0.478737
Pb      11.82900      4.09352      0.16912        -0.026484      0.153268      0.111849
Pb      11.52877     15.45247      4.19142        -0.216207     -0.122107     -0.234059
Pb      11.55722     15.49296      0.08469         0.714382      0.357850     -0.181256
Pb      11.75823      4.15171      8.44414        -0.008882     -0.467292      0.317082
Pb      11.62143      0.15552      8.26273        -0.132342     -0.230597      0.600851
Pb      11.84421      3.81262     12.66858         0.126298      0.320888     -1.265851
Pb      11.83746     15.54002     12.43195        -0.620002      0.521473     -0.127033
Pb      11.74659      7.48188      4.05642         0.226143      1.072546      0.432949
Pb      11.40388      7.78371      0.03246         0.105047      0.046491     -0.209690
Pb      11.53065      7.95376      8.26866         0.475865     -0.672275      0.065528
Pb      11.45598      7.93690     12.70825         0.561208      0.050857     -0.440060
Pb      11.67030     11.24864      4.29030         0.025777      0.822584     -0.416222
Pb      11.81127     11.80086     16.50309        -1.078041     -0.515044      0.260172
Pb      12.04871     11.99738      8.48816        -0.732278     -0.692766     -0.368657
Pb      11.59045     11.91963     12.40029        -0.059647     -0.524522     -0.375807
Ti       1.74285      1.81353      2.11275         1.629496      0.428709     -0.246607
Ti       1.97406      1.89653     14.78176         0.643084      0.475222      1.170708
Ti       1.88549     13.54188      2.13075         0.422976      0.228868      0.302053
Ti       1.89898     13.62071     14.59048         0.703078      0.137099      0.585122
Ti      13.47577      1.91110      2.16879         0.927207     -0.312510     -0.250489
Ti      13.45962      1.95168     14.88547         1.377127     -0.771739     -0.522684
Ti      13.51313     13.53921      2.19970         0.170501      0.781537      0.134710
Ti      13.60718     13.59620     14.65956         0.510880      1.667621     -0.586845
Ti       1.86913      1.97528      6.28543         0.145779      0.209978     -1.331681
Ti       1.91407     13.82700      6.09889        -0.086887     -1.759200      1.681583
Ti      13.61779      1.85245      6.25197         0.715119     -0.058303     -0.492279
Ti      13.68298     13.64420      6.19127         0.118464      0.331549     -0.117777
Ti       1.93885      1.91018     10.50046        -0.088225      0.288921      1.246146
Ti       1.98773     13.48072     10.44286        -1.123477      1.349584     -0.524725
Ti      13.58941      1.89279     10.44509         0.190558      1.040392      0.635998
Ti      13.73366     13.67079     10.57871         0.941058     -0.341539      0.014504
Ti       2.05657      5.71685      2.19769        -0.357083     -0.230416     -0.199805
Ti       1.80143      5.71007     14.82686         1.514391     -0.116510     -1.074217
Ti      13.82084      5.84650      2.20678        -0.188274      0.160336     -0.695372
Ti      13.54901      5.98394     14.64038         0.561439     -1.355520     -0.751090
Ti       1.89735      5.93043      6.26953        -0.010102     -0.203641      0.865526
Ti      13.69190      5.82391      6.32121        -0.128474      0.336625     -0.119693
Ti       2.17784      5.88934     10.36743        -1.906208     -0.508257      0.517230
Ti      13.83852      5.75620     10.65098        -0.528892      0.151510     -0.911345
Ti       1.90553      9.66586      2.12257        -0.037469      0.632981     -0.543101
Ti       1.92218      9.64434     14.59181         0.256238      0.443170      0.399091
Ti      13.62117      9.68253      2.12459         0.589985     -0.380275      0.680082
Ti      13.61206      9.78281     14.59356         0.078988     -0.476368     -1.201155
Ti       1.81451      9.82237      6.41557         0.582742     -0.457170      0.061146
Ti      13.63949      9.65335      6.30632        -0.093284     -0.053668      0.779063
Ti       2.03038      9.65182     10.44522        -0.577916     -0.353551     -0.266506
Ti      13.48954      9.61803     10.62503         0.225779      0.635196      0.291072
Ti       5.80444      1.98278      2.10234        -0.054007     -0.485597      1.045588
Ti       5.91822      2.05536     14.61308        -1.805057     -0.914276      0.784450
Ti       5.82950     13.60435      2.15336        -0.616522      0.324573     -1.069863
Ti       5.94287     13.79600     14.81453        -1.114280     -0.171035      0.192237
Ti       5.81083      1.90778      6.42892         1.311269      0.758134     -0.542722
Ti       5.75318     13.82755      6.39165         0.564837     -1.213488     -1.162645
Ti       5.84611      1.84703     10.51393        -0.539829      0.202540     -0.976620
Ti       5.91039     13.58232     10.43590        -0.154901      0.298883      1.995357
Ti       5.99037      5.87113      2.41808        -0.211109     -0.434543     -1.050228
Ti       5.88610      5.86195     14.60286        -0.973734      0.162309      0.217533
Ti       5.79379      5.80913      6.29115         0.693663     -0.374132     -0.642725
Ti       5.93729      5.88030     10.53918        -0.301356     -0.580650     -0.930082
Ti       5.73010      9.78638      2.22979         0.727551     -0.328284     -0.508836
Ti       5.76294      9.71633     14.67081         0.722855     -0.093538     -0.417754
Ti       5.80427      9.82106      6.26376        -0.608536     -0.810998      0.483098
Ti       5.87943      9.67372     10.43315         0.332512     -0.293794     -0.822356
Ti       9.76362      2.01006      2.20265        -0.707173     -0.716263      0.688521
Ti       9.72070      2.04893     14.63328        -0.778813     -0.399086     -1.112381
Ti       9.69925     13.53568      2.16614         0.510748      0.135122      0.775044
Ti       9.66892     13.71116     14.62702         0.213339     -1.123422     -0.570647
Ti       9.81774      1.81948      6.31585        -1.676023      0.971783      0.064612
Ti       9.85239     13.60361      6.48640        -0.875820      0.369278     -0.757327
Ti       9.62798      1.91467     10.55673         1.686452      0.463379     -1.282565
Ti       9.65219     13.63659     10.40343         1.789314      0.600180     -0.698798
Ti       9.77496      5.78475      2.30780        -0.542333      0.540680     -0.838640
Ti       9.66511      5.89136     14.46253         0.631479     -0.122495      0.608192
Ti       9.71434      5.72438      6.32840        -0.204808     -0.465675      1.264629
Ti       9.89919      5.83121     10.44750         0.319338     -1.165569     -0.729160
Ti       9.62492      9.66146      2.30741        -0.205095      0.214394      0.078412
Ti       9.68867      9.85506     14.61702        -0.434920      0.400529      1.017298
Ti       9.68575      9.68712      6.41170         0.421364      0.875299     -0.842963
Ti       9.74183      9.74592     10.33770        -0.148454      0.203035     -0.711720
O       1.95871      1.55073      0.33398        -0.365084      0.537721      0.610460
O       1.77266      2.04209     13.03560         0.042236      0.071057     -1.375652
O       1.66463     13.61374      0.35368         0.560353     -0.060078      0.164351
O       2.04455     13.71721     12.84165        -0.104043     -0.575005     -0.633460
O      13.30895      1.84774      0.33639         0.645577      0.694124     -0.508899
O      13.65441      1.81010     13.01320        -0.223873      0.231188      0.656104
O      13.60117     13.37226      0.30760        -0.034610      0.049486      1.160352
O      13.68681     13.88068     12.86218        -0.595962     -0.873436     -0.317907
O       1.85999      1.90409      4.48314        -0.093439      0.384425      0.204154
O       2.00125     13.61105      4.37733         0.116721     -0.028248     -0.691755
O      13.71773      2.09691      4.39996        -0.448411     -0.657477      0.453093
O      13.47604     13.72782      4.43061         0.427557     -0.456682     -0.179837
O       1.85388      2.08855      8.73276         0.123504     -0.504062     -0.696759
O       1.81782     13.62742      8.65821         0.099329     -0.047597      0.862938
O      13.69202      1.96321      8.67317        -0.128183     -0.304868     -0.170706
O      13.82520     13.50315      8.76113        -0.051561      0.750068      0.647377
O       2.14014      5.85999      0.40108        -0.272447      0.417526      0.821445
O       1.85990      5.62811     13.04153        -0.007997      0.120478      0.683971
O      13.48939      6.12721      0.39818         0.127644     -0.845674     -0.060522
O      13.70065      5.70507     12.79262        -0.149656      0.219907      0.983184
O       1.80893      5.74928      4.46989         0.232450      0.042448     -0.091746
O      13.65029      5.68138      4.45445         0.280797     -0.111196      0.676309
O       2.26952      5.90088      8.56898        -0.413966     -0.409646      0.180148
O      13.70838      5.62976      8.76124         0.084171      0.700572     -0.465571
O       1.92726      9.65494      0.30707        -0.170398     -0.063409      0.322976
O       2.10861      9.52005     12.78716        -0.466867      0.517038      0.339257
O      13.88302      9.74998      0.35836        -0.878643     -0.340590     -0.279567
O      13.62397      9.78511     12.74089        -0.272179     -0.409533      1.393719
O       1.80013      9.83518      4.60323         0.264555     -0.521012     -0.050574
O      13.86311      9.72540      4.58107        -0.618322      0.250693     -0.190846
O       1.82952      9.84729      8.69278         0.396535     -0.520992     -0.240544
O      13.51375      9.62492      8.82091         0.257107     -0.146133     -0.951551
O       5.87800      2.12527      0.35020         0.360387     -0.499657     -0.886131
O       5.83224      2.00524     12.79930         0.862556     -0.147202     -0.329266
O       5.94960     13.67672      0.30602         0.051797     -0.170025      0.810116
O       5.90541     13.68427     13.04224         0.012551     -0.376758     -1.050878
O       5.78355      1.79209      4.66459        -0.180592      0.427544     -0.040487
O       5.77431     13.68529      4.60592        -0.227018      0.062422     -0.053637
O       5.84409      1.73137      8.68346        -0.610746      0.565888      1.065926
O       5.84107     13.71093      8.76729        -0.409338      0.019400     -2.218609
O       5.93327      5.75279      0.58140         0.205471     -0.027937     -0.390192
O       5.92047      5.74413     12.78747         0.124727      0.235701      0.446584
O       5.84764      5.59612      4.48985         0.268537      0.681768      0.874692
O       5.79562      5.80500      8.71340         0.075033      0.538589      0.005929
O       5.77481      9.65808      0.42965        -0.111426     -0.210613     -0.381888
O       5.89824      9.72737     12.82994         0.082321      0.112183      0.545057
O       5.73758      9.83612      4.49227         0.122349      0.186350     -0.265418
O       5.82064      9.65854      8.67165        -0.084977     -0.026855     -0.286116
O       9.59268      2.02300      0.40740         0.217357      0.045259     -0.541738
O       9.67981      1.76402     12.79319        -0.212560      0.651261      0.961550
O       9.70470     13.54698      0.39466         0.047041      0.109040      0.151312
O       9.74491     13.60838     12.78620        -0.031702      0.305849      0.412453
O       9.90342      1.76595      4.53553        -0.624676      0.181769     -0.392915
O       9.59713     13.89137      4.66632         0.674866     -0.717423     -0.478429
O      10.04935      2.00370      8.75069        -0.604380     -0.428943      0.105789
O       9.78705     13.63883      8.53394        -0.031363     -0.287483      1.326900
O       9.65318      5.84383      0.43194         0.464234     -0.083053      0.857802
O       9.88575      6.01189     12.65050        -0.534880     -0.277309      0.282477
O       9.84921      5.93690      4.59385         0.293392     -0.080083     -0.692961
O       9.91440      5.70887      8.53113        -0.520312      0.024954      0.643057
O       9.69459      9.59638      0.53522         0.193437      0.278847     -0.844168
O       9.49135      9.71589     12.87508         0.654888     -0.225646     -1.280738
O       9.51975      9.81040      4.48497         0.531745     -0.347459      1.340897
O       9.85480      9.72605      8.49942        -0.208535      0.136282      0.632228
O       3.96938      1.82063      2.37889        -0.624893     -0.211811      0.299783
O       3.87623      1.92192     14.83010         0.071371     -0.462894      0.496449
O       3.84835     13.53331      2.28486         0.074706      0.619433      0.205009
O       3.88720     13.73539     15.08251         0.000845     -0.267913     -0.262576
O      15.51706      1.86998      2.35052         0.192084      0.080018     -0.078680
O      15.53709      1.89851     15.14665        -0.907056      0.006216     -0.341739
O      15.47674     13.53671      2.57643         0.279035      0.017047     -0.651033
O      15.51844     13.59740     14.89838         0.626482     -0.547682      0.007070
O       3.79989      2.05888      6.76625         0.048052     -0.384202     -0.206825
O       3.76459     13.68064      6.68834         0.756886     -0.218994     -0.007871
O      15.58818      1.79830      6.58013         0.219326      0.166555      0.325333
O       0.03744     13.71507      6.28191        -0.134480      0.085949      0.631463
O       3.92383      1.91224     10.85829        -0.492047      0.261216     -0.405823
O       3.92927     13.49339     10.81603         0.143385      0.489020     -0.304161
O       0.01674      1.98404     10.88805         0.220551      0.055727     -0.273410
O       0.10193     13.47563     10.86986        -0.393498      0.223603     -0.267748
O       3.99887      5.70096      2.60489        -1.067327      0.642018     -0.320448
O       3.87049      5.94259     14.97061         1.190302     -0.417741      0.026304
O       0.12324      5.71189      2.24643        -0.241347     -0.001315      0.342148
O      15.52570      5.77161     15.15982        -0.311769      0.164593     -0.214508
O       3.92687      5.87459      6.36193        -0.830888     -0.427170      0.519216
O      15.58205      6.06677      6.72823         0.045917     -0.745719     -0.319430
O       3.97579      5.90896     10.91771         0.331061     -0.410876     -0.209364
O       0.11859      5.84210     10.56532         0.048929      0.032337      0.344827
O       3.81112      9.74337      2.56264         0.246674     -0.382746      0.114422
O       3.87651      9.53750     14.93606         0.026664      0.374037     -0.186374
O       0.06671      9.72538      2.54213        -0.870032      0.279876     -0.349242
O      15.54644      9.70695     14.61221         0.378919     -0.020350      0.567365
O       3.80515      9.71645      6.64832         0.291634      0.633281     -0.137538
O      15.52571      9.52382      6.78394        -0.293408      0.506385     -0.099278
O       3.99878      9.66115     10.77214        -0.785657      0.214977      0.054856
O       0.10492      9.60867     10.87872        -0.252713      0.137723     -0.125255
O       7.74720      2.01122      2.54531         1.292874     -0.728348     -0.414171
O       7.75491      2.08213     14.92004         1.242821     -0.203879      0.127247
O       7.73731     13.53924      2.58740         0.637008      0.036418     -0.659848
O       7.80627     13.35908     14.99334         0.047943      1.280134     -0.396238
O       7.76876      1.76062      6.72565         0.083970      0.621665     -0.209276
O       7.70744     13.81728      6.67286        -0.953917     -0.674069      0.171406
O       7.74633      1.68405     10.62637         0.055420      0.295879      0.813350
O       7.89041     13.49604     10.60773        -2.065088      0.162826      0.651306
O       7.90444      5.75033      2.82039        -0.454699      0.006646     -0.761155
O       7.82048      5.90573     14.79442        -0.731428     -0.286336      0.000050
O       7.76547      5.90459      6.67326         0.368265     -0.124212     -0.123695
O       7.84365      5.92371     10.70586        -0.521936     -0.241259      0.006529
O       7.64523      9.67518      2.47761         1.085042      0.264640      0.235052
O       7.79632      9.74737     15.07655        -0.371907      0.466043     -0.323175
O       7.69899      9.78374      6.68690         0.193036     -0.149821     -0.387849
O       7.86830      9.61434     10.56747        -0.137352      0.244917      0.636266
O      11.66899      1.98506      2.30929        -0.920991      0.065623      0.829694
O      11.53900      1.78023     14.91482         0.496512      0.545066      0.033794
O      11.65116     13.63425      2.50331        -0.712761     -0.316298     -0.563024
O      11.68988     13.71442     14.93274        -0.927262     -0.733519      0.043205
O      11.71389      1.64726      6.39621         0.886191      0.643454      0.544615
O      11.71256     13.60277      6.59220         0.457114      0.221191      0.219108
O      11.75911      1.94938     10.90538         0.037004     -0.154486     -0.002480
O      11.72156     13.66960     10.71105         1.150670     -0.601941      0.350038
O      11.71283      5.84275      2.43380        -0.152987      0.031066      0.187042
O      11.68935      5.89715     14.75745        -0.652524     -0.206751      0.587938
O      11.81153      5.69064      6.60123        -0.732094      0.019605     -0.380642
O      11.73580      5.45671     10.60707        -1.028169      0.659721      0.527156
O      11.71357      9.58921      2.54566         0.040444     -0.191030     -0.155752
O      11.57474      9.69294     14.89736         1.419157     -0.073401      0.038854
O      11.61568      9.81142      6.42550         0.350378     -0.050199      0.063366
O      11.61402      9.61102     10.84609         0.245324      0.083461      0.166615
O       2.13338      3.68508      2.33015        -0.803006      1.450034      0.165369
O       1.90514      3.80408     15.42359         0.115432      0.382232     -1.281044
O       1.85478     15.52131      2.56507         0.217163     -0.271081     -0.413426
O       1.80130     15.51449     14.89591         0.279416      0.362449      0.086453
O      13.69999      3.89119      2.22661        -0.528226     -0.007117      0.155776
O      13.51881      3.89334     15.03764        -0.268598     -0.647018      0.026267
O      13.55004     15.52357      2.17960         0.200809     -0.074419      0.737700
O      13.57711     15.47154     15.17780        -0.140421      0.817592     -0.472418
O       1.71597      3.88702      6.59472         0.517549      0.541908      0.070023
O       2.01421      0.04703      6.42661        -0.150841      0.079969      0.851361
O      13.71883      3.70715      6.56474         0.112716      1.308467     -0.040093
O      13.76705     15.51067      6.55071        -0.374875      0.662961      0.489475
O       2.02641      4.00534     10.88118         0.282176     -0.962919     -0.621478
O       2.00670      0.06289     10.73133        -0.113945     -0.718100     -0.075076
O      13.68450      3.89719     10.86679         0.520093     -1.847933      0.310014
O      13.81262      0.01678     10.73933        -0.374814     -0.876979      0.030328
O       1.94226      7.79878      2.57783         0.350453     -0.874674     -0.271151
O       1.83875      7.74236     14.98433        -0.158965      0.184184      0.022453
O      13.86851      7.72785      2.60471        -0.500021      0.487562     -0.212876
O      13.56586      7.78508     14.67158         0.443251      1.067873      0.447635
O       2.04664      7.78613      6.48666        -0.102646     -0.364546     -0.166478
O      13.43617      7.73816      6.46045         0.443608      0.265877      0.424251
O       2.05983      7.76268     10.69308         0.184104     -0.116089      0.128548
O      13.66818      7.66797     10.87496        -0.051082      0.695447     -0.058111
O       1.98739     11.65870      2.46192        -0.625917      0.024450     -0.139587
O       2.06976     11.64614     14.85055        -0.580060     -0.407744     -0.105060
O      13.48108     11.56047      2.54999         0.625442      0.303243     -0.325525
O      13.57855     11.64097     14.92851        -0.162524      0.081664     -0.330103
O       1.80230     11.67464      6.54969         0.187466      0.528420      0.400432
O      13.68587     11.79987      6.68644         0.262344     -1.632521     -0.141069
O       2.03713     11.58975     10.77945         0.175808      0.384434      0.177853
O      13.71335     11.54221     10.76653        -0.421406      1.326193      0.187640
O       5.93682      3.81535      2.56368        -0.522389      0.313918      0.120310
O       5.78870      3.88828     14.97437         0.307126      1.704134     -0.264704
O       5.83674     15.52056      2.42556         0.190863     -0.101230     -0.180145
O       6.06163      0.10307     14.92727        -0.028972     -0.925878      0.155035
O       5.92275      3.92806      6.65343        -0.428666     -0.510892      0.198764
O       5.66901      0.03345      6.73002        -0.389773     -0.481386      0.014900
O       5.95318      3.82359     10.64896         0.054789      0.154124      0.337206
O       5.83379     15.46170     10.94738         0.036081      0.040016     -0.389932
O       5.91872      7.71141      2.61947        -0.662905      0.458143      0.056660
O       5.94573      7.80558     15.00018        -0.325697     -0.889431     -0.413199
O       5.70688      7.88814      6.41698         0.541856     -1.114610      0.365431
O       5.90868      7.77459     10.86418        -0.156934     -0.328773     -0.194527
O       5.75701     11.64758      2.23238        -0.062502      0.582677      0.767873
O       5.79578     11.60706     15.00027        -0.252465      0.002606      0.014223
O       5.71391     11.74266      6.70488         0.440919      0.037450     -0.432847
O       5.91795     11.58999     10.73745        -0.059445      0.866188      0.226936
O       9.80541      3.89782      2.61233        -0.160532     -0.366414     -0.143468
O       9.63388      4.00527     14.73919         0.720828     -1.249170      0.127618
O       9.77252      0.00265      2.48171        -0.470984     -0.362126     -0.727986
O       9.59557     15.55523     14.99109        -0.390267      0.499065      0.200754
O       9.71842      3.80769      6.30546         0.159103      0.581927      0.625723
O       9.71816     15.57694      6.75236         0.559808      0.244240      0.349849
O       9.43285      3.81550     10.73351         0.482789     -0.101188      0.415553
O       9.80343     15.52299     10.55597        -0.161657     -0.173250      0.544788
O       9.62536      7.78639      2.58988         0.449106     -0.560376     -0.023187
O       9.72627      7.78876     14.85581         0.152144     -0.092610      0.269532
O       9.67647      7.82213      6.69555         0.279530     -0.256419     -0.384725
O       9.86334      7.68435     10.40418        -0.013043      0.663232      0.748322
O       9.72009     11.65444      2.65182         0.079674      0.401196     -0.396571
O       9.75172     11.72947     14.83001         0.473515     -0.514245      0.299251
O       9.54626     11.77307      6.54616        -0.082366     -1.130771     -0.296238
O       9.84500     11.59353     10.63036         0.053942      0.594545      0.571337
