  # total energy = -7880.45695908 
CRSYTAL
PRIMVEC
    15.6080000000000005    0.0000000000000000    0.0000000000000000
     0.0000000000000000   15.6080000000000005    0.0000000000000000
     0.0000000000000000    0.0000000000000000   16.6239999999999988
PRESSURE
-0.394631 -0.600215 -0.723943 -0.165408 -0.264916 0.075341
PRIMCOORD
320 1
Pb       3.99488      3.98698      4.16949        -0.311528     -0.274691     -0.446453
Pb       4.06375      4.09346      0.12969        -0.179364     -0.540741     -0.305301
Pb       3.87923      0.02875      4.02599        -0.041154     -0.491617      0.376200
Pb       3.77466     15.57347     16.61896         0.284233     -0.137299     -0.356113
Pb       0.08769      3.84015      4.14075        -0.145603      0.190521     -0.011944
Pb      15.45981      3.83090      0.01091         0.804444     -0.125600     -0.398468
Pb      15.53418     15.57725      3.99945        -0.110375      0.020374      0.478058
Pb      15.48714     15.55679     16.59003        -0.101117     -0.113930     -0.420420
Pb       3.68170      3.80647      8.34511         0.136815      0.409214     -0.432585
Pb       3.88923      0.06785      8.33211         0.465491     -0.407581     -0.703149
Pb      15.55943      3.79385      8.26776        -0.194272      0.654256      0.054648
Pb       0.14028     15.57241      8.19716        -0.539270      0.135739      0.048419
Pb       3.92572      3.95360     12.35546        -0.208474     -0.419180      0.766516
Pb       3.83957     15.40956     12.27213         0.073858      0.809219      1.043234
Pb      15.58545      3.75179     12.42458        -0.114499      0.665261      0.342127
Pb      15.53338      0.29235     12.56342         0.373784     -1.331754      0.504779
Pb       3.80947      7.84176      4.33519         0.154896      0.142624     -0.737919
Pb       3.81162      7.73858      0.02047         0.429883      0.222306     -0.319494
Pb       0.24248      7.89804      4.22474        -1.268340     -0.515140     -0.107864
Pb       0.02983      7.73743      0.03057        -0.248799      0.381200     -0.323115
Pb       4.09337      7.69923      8.06503        -1.074910      0.160497      0.965308
Pb      15.43529      7.76654      8.53044        -0.184666     -0.164627     -0.716574
Pb       3.91517      7.88451     12.45066         0.311038     -0.247365     -0.079470
Pb       0.00411      7.95021     12.59341        -0.278786     -0.543163     -0.640939
Pb       3.84697     11.67093      4.08875        -0.214135      0.086037     -0.310648
Pb       3.92308     11.59369     16.43699        -0.069511      0.300894      0.720023
Pb      15.58991     11.65367      4.08225         0.168334     -0.044113      0.026460
Pb      15.54563     11.81317     16.55531         0.159319     -0.185877     -0.191372
Pb       3.82615     11.62912      8.07812         0.132051      0.267727      0.659068
Pb      15.55634     11.62516      8.33760         0.453986     -0.147837     -0.162390
Pb       4.05474     11.69688     12.32123        -0.621731     -0.105443     -0.097514
Pb       0.17690     11.52019     12.29855         0.084624      1.038741      0.389721
Pb       7.87669      3.75973      4.19996        -0.546422      0.241764     -0.284917
Pb       7.87070      4.00621      0.11588        -0.520824     -0.235303     -0.115276
Pb       7.80339     15.44557      3.98556         0.137590      0.186886      0.609820
Pb       7.91696      0.16805      0.09995        -0.250344     -0.485218     -0.304558
Pb       7.58615      3.99164      8.32477         0.757996     -0.608036      0.204939
Pb       7.85833     15.50801      8.36072        -0.598417      0.332995     -0.605955
Pb       7.65998      3.81361     12.39940         0.371546     -0.088544     -0.044940
Pb       7.66709     15.56376     12.55857         0.425076      0.062947     -0.878691
Pb       7.70336      7.86474      4.16921         0.205105     -0.361029     -0.300227
Pb       7.88139      8.01992     16.59696        -1.090777     -0.837310      0.108092
Pb       7.79794      7.77225      8.26561         0.590623     -0.063407     -0.093639
Pb       7.87337      7.57048     12.30886        -0.634016      0.661688      0.534151
Pb       7.99578     11.67587      4.33066        -0.376519      0.346032     -0.805170
Pb       7.67963     11.66223      0.04621        -0.044597      0.282771     -0.431242
Pb       7.60079     11.73965      8.08736         0.858364      0.091603      0.850924
Pb       7.68296     11.48625     12.41097         0.468131      0.368511     -0.287137
Pb      11.75623      3.95701      4.33749         0.151169     -0.684299     -0.407345
Pb      11.82319      4.08641      0.10082        -0.490659     -0.754115     -0.515224
Pb      11.48186     15.49643      4.15293         0.758408     -0.001854     -0.551783
Pb      11.55607     15.53332      0.10090         0.547386     -0.060410     -0.400596
Pb      11.78309      4.07284      8.36421        -0.168246     -0.457682      0.002217
Pb      11.63530      0.11001      8.23942         0.344082      0.191764      0.024830
Pb      11.86762      3.81904     12.60656        -0.587691     -0.021506     -0.662899
Pb      11.91974     15.52788     12.41395        -0.981575      0.394626      0.481311
Pb      11.72189      7.44290      4.00229         0.028428      1.392598      0.780981
Pb      11.35998      7.77437      0.01446         1.534396      0.063404     -0.394722
Pb      11.53636      7.96150      8.19233         0.694058     -0.309446      0.488538
Pb      11.55142      7.85903     12.65461        -0.026956     -0.018302     -0.547026
Pb      11.57321     11.31178      4.26439         0.767721      1.459830     -0.067988
Pb      11.80381     11.78844     16.52226        -0.105478      0.166033      0.084073
Pb      12.06775     11.94087      8.37920        -1.552554     -1.121707      0.243030
Pb      11.64233     11.86512     12.41018        -0.257549     -0.246725      0.080145
Ti       2.00781      1.98260      2.16162        -0.853403      0.344962      0.955592
Ti       1.98722      2.00203     14.67095        -0.021718      0.400430     -0.662399
Ti       1.94555     13.67260      2.16685         0.238471     -0.540152     -0.521653
Ti       2.03116     13.65091     14.54958        -1.205513     -0.239565     -0.971606
Ti      13.61909      1.99428      2.29554        -0.026059     -1.137818     -0.206253
Ti      13.57820      1.94624     14.75349        -0.050533     -0.793871      0.204375
Ti      13.59723     13.58056      2.29854        -0.527030      0.805753     -0.915383
Ti      13.67897     13.65888     14.57861        -0.079517      0.039610     -0.203538
Ti       1.97414      1.89580      6.29085        -0.762572     -0.073590      0.488928
Ti       1.90130     13.51262      6.34850         0.333357      0.381764      0.242582
Ti      13.66324      1.90666      6.34781        -0.229787      0.499062     -0.411998
Ti      13.72204     13.67693      6.34660        -0.004822      0.013466     -1.177061
Ti       1.90134      1.92124     10.56147         0.589337     -0.278032      1.362825
Ti       1.92275     13.67098     10.40300        -0.066282     -1.093895      1.030899
Ti      13.63061      2.00128     10.47122        -0.596031     -0.364333     -0.072120
Ti      13.75382     13.66602     10.51276         0.236227      0.541784      0.814389
Ti       1.92854      5.85216      2.22078        -0.471825     -0.268663      0.821122
Ti       1.95440      5.86203     14.56085         0.058237     -0.261147      0.981569
Ti      13.68246      5.83616      2.16140         1.248306      0.117960      1.255339
Ti      13.66728      5.83599     14.66833        -0.288463      0.937667      0.345898
Ti       1.79260      5.78889      6.42714         0.172022     -0.014125      0.826944
Ti      13.60149      5.86332      6.35422         0.634676      0.478074      1.221512
Ti       1.80459      5.78212     10.61692        -0.315320      0.798418     -1.909182
Ti      13.53340      5.95985     10.58139         0.300285     -0.370485     -0.449172
Ti       1.94441      9.70373      2.15516        -0.236222      0.534470      0.838966
Ti       1.91487      9.80140     14.67401         0.011220     -0.430241      0.536812
Ti      13.63618      9.69376      2.23299         0.766803     -0.287914     -0.322918
Ti      13.63908      9.69242     14.71494         0.226197     -0.154082      1.456065
Ti       1.86520      9.58868      6.45966        -0.123150      0.579904     -0.776887
Ti      13.61021      9.76959      6.31670         0.227547     -1.092306     -0.490741
Ti       1.96833      9.64671     10.37179         0.225568      0.460954      0.419678
Ti      13.54101      9.81194     10.63616         0.038602     -1.021881     -1.475529
Ti       5.83933      1.87723      2.21990         0.060330      0.709392     -0.631957
Ti       5.83418      1.88221     14.75923        -0.762169      0.184477      0.136794
Ti       5.84445     13.56417      2.21988        -0.380663     -0.479080      0.782855
Ti       5.83334     13.59449     14.64773         0.020573      0.292800     -0.093589
Ti       5.80863      1.91603      6.28185         0.226065     -0.982052      0.273270
Ti       5.77487     13.57422      6.19424        -0.091831      1.860517      1.348383
Ti       5.80420      1.93122     10.48628         0.267800     -0.641236      0.394343
Ti       5.85122     13.60398     10.44487         0.040142     -0.172545     -1.503193
Ti       5.81401      5.90395      2.20167         0.410501     -0.259005     -0.472796
Ti       5.84860      5.80648     14.70908        -0.491049      0.350662     -0.476065
Ti       5.80524      5.69275      6.28707        -0.159387      0.706570      0.135319
Ti       5.70915      5.79681     10.44629         0.487119      0.563703      1.652596
Ti       5.84887      9.72861      2.30555        -0.290522      0.293873     -0.983303
Ti       5.87616      9.64659     14.63146        -0.521586     -0.292925      0.463608
Ti       5.87782      9.68185      6.31271        -0.489319     -0.413913     -1.502665
Ti       5.84440      9.62910     10.34758         0.233194      0.407889      0.566010
Ti       9.75560      1.94403      2.23974         0.283481     -0.280045      1.116399
Ti       9.75038      1.92517     14.69337         0.984846      0.041862     -0.137492
Ti       9.73835     13.51601      2.18468         0.613362      0.993533      0.011944
Ti       9.68195     13.65129     14.67521         0.317991     -0.227687      0.135011
Ti       9.66306      2.05301      6.42589        -0.016478     -0.375044     -0.542574
Ti       9.79817     13.67393      6.42762        -0.384489     -1.019162     -1.927637
Ti       9.78977      1.88795     10.55983        -0.480925      0.692680      0.471015
Ti       9.72691     13.70703     10.53265        -0.957037     -0.333810      0.514305
Ti       9.69088      5.81177      2.21552        -1.045002     -0.030955      1.064844
Ti       9.66066      5.68277     14.72748         0.596171      0.964855      0.341089
Ti       9.69166      5.78161      6.38793         0.277956      0.695139      0.058615
Ti       9.72134      5.70783     10.58123        -0.129209     -0.040150     -1.303494
Ti       9.84063      9.73720      2.16119        -1.165944     -0.607756      1.134290
Ti       9.78782      9.79701     14.67059        -0.283722      0.485644     -0.922714
Ti       9.73096      9.79686      6.35835         0.686560     -0.436439      0.756907
Ti       9.75588      9.78239     10.48959        -0.330808     -0.230481     -0.805730
O       1.90830      2.04962      0.43215        -0.168144     -0.362872     -1.307822
O       1.92803      1.85678     12.81745        -0.207691      0.165218      0.956996
O       2.08465     13.59005      0.36988        -0.546590      0.154568      0.752356
O       1.86488     13.61499     12.71211         0.448403     -0.233143      0.774290
O      13.77831      1.99498      0.40320        -0.559586     -0.011883      1.008415
O      13.75021      1.94142     12.89978        -0.741908      0.343966      0.106827
O      13.56579     13.74628      0.40285         0.163927     -0.480164      1.112292
O      13.63108     13.65442     12.73763        -0.137554     -0.381763      0.681214
O       1.89062      1.96288      4.56961         0.097234     -0.057127     -1.013605
O       1.86021     13.59207      4.61918        -0.113999     -0.037187     -1.273246
O      13.63798      1.80691      4.56675        -0.164245      0.826162      0.612120
O      13.82093     13.59552      4.55546        -0.259625     -0.065312      0.310034
O       1.93401      1.86738      8.82453         0.162602      0.221576     -1.464074
O       1.98260     13.53728      8.62550         0.206074      0.586004      0.169880
O      13.52207      1.96484      8.71404         0.356049     -0.414018     -0.465303
O      13.60092     13.66325      8.72098         0.005016      0.261928     -0.457706
O       1.83719      5.94747      0.48346         0.207488     -0.261667     -1.179809
O       2.06310      5.91807     12.81035        -0.143995      0.150165     -0.677570
O      13.70416      5.63662      0.38436         0.121085      0.298046     -0.034747
O      13.43623      5.79830     12.91050         0.179863     -0.050987     -0.510408
O       1.85622      5.82042      4.67467         0.201442      0.086161     -0.872579
O      13.54709      5.86041      4.60561        -0.266843     -0.245643     -0.906296
O       1.62512      5.67496      8.74844         0.755531      0.160971      1.096020
O      13.58756      5.99079      8.70102         0.138738     -0.288411      1.995365
O       1.90061      9.69559      0.41043         0.130030      0.023280     -0.688397
O       1.82359      9.70980     12.87430         0.046376     -0.144579     -0.377683
O      13.45720      9.67839      0.48772         0.522453      0.145528     -0.158309
O      13.63328      9.65623     12.96429         0.096481      0.296494     -1.769329
O       1.94906      9.60819      4.58686        -0.315964      0.007736      0.687994
O      13.57519      9.76156      4.46686         0.106739      0.081976      1.281113
O       1.97168      9.71739      8.61264        -0.100617     -0.237871      0.045987
O      13.58563      9.74152      8.82276         0.066968      0.090389     -0.104668
O       5.83767      1.90366      0.39926         0.158488      0.025266      0.798988
O       5.78459      1.84411     12.97649         0.486975      0.201942      0.071792
O       5.70139     13.38730      0.49568         0.352308      0.339376     -1.549792
O       5.75201     13.50217     12.81098         0.594298      0.507034      0.884545
O       5.76348      2.04734      4.50177         0.087559     -0.370778     -0.071447
O       5.81692     13.72372      4.46248         0.175368     -0.442562      0.149096
O       5.75851      1.99026      8.74041        -0.150465     -0.257640     -0.939494
O       5.71941     13.53815      8.58993         0.559243      0.040116      0.720055
O       5.78903      5.88713      0.34949        -0.168110     -0.435350      0.733168
O       5.73649      5.87727     12.88384         0.100914     -0.375524      0.128679
O       5.74653      5.83303      4.52551        -0.033730     -0.066399     -0.219728
O       5.87563      5.88099      8.71777        -0.077775     -0.227271     -1.452594
O       5.85186      9.73528      0.42743         0.148163      0.201479      0.521853
O       5.80775      9.62041     12.85532         0.034999      0.480160     -0.013659
O       5.81374      9.56518      4.44372        -0.122007      0.290850      1.466701
O       5.80421      9.57581      8.54828         0.467236      0.519909     -0.297876
O       9.84426      1.88330      0.49811        -0.600047     -0.061255     -0.865365
O       9.72844      2.07139     12.92957        -0.116184     -0.251506     -0.014532
O       9.89861     13.64436      0.37592        -0.405017      0.054935      0.569760
O       9.63993     13.57647     12.88671         0.138303      0.037702     -0.094490
O       9.54085      2.02607      4.54977         0.624542     -0.019303      1.711084
O       9.74000     13.51520      4.45154        -0.161355      0.303853      2.084406
O       9.57540      1.79239      8.78547         0.460874     -0.305418     -0.726955
O       9.69044     13.68531      8.73917        -0.049649      0.328204     -0.674659
O       9.61602      5.84761      0.45807         0.623975     -0.004848     -0.831519
O       9.59418      5.74736     12.98387         0.420837     -0.182293     -1.061065
O       9.76285      5.66089      4.58165         0.039813      0.160102      0.133397
O       9.59106      5.78847      8.75555         0.287863      0.398222      0.389749
O       9.65636      9.61727      0.37581         0.261526      0.435934      0.106008
O       9.81519      9.83240     12.85088        -0.125331     -0.095478      0.965878
O       9.79503      9.79631      4.53554        -0.422822     -0.118575     -0.300904
O       9.73378      9.69969      8.65191        -0.251069     -0.394254      0.572879
O       3.84593      2.04586      2.50298         0.683264     -0.517995     -0.007005
O       3.86732      1.89188     15.09557        -0.536613      0.367159     -0.385456
O       3.92095     13.63591      2.53786        -1.105348     -0.258837      0.376421
O       3.87362     13.62420     14.83919         0.583932     -0.547163      0.229506
O      15.51931      1.86808      2.57972         0.393536      0.302079     -0.387442
O      15.55388      1.94692     14.91978         0.692985     -0.211680      0.347577
O      15.57457     13.80202      2.39209         0.445795     -0.405217     -0.011690
O      15.53734     13.68239     14.92942         0.302900     -0.397433      0.407428
O       3.82886      1.84959      6.61683         0.671347      0.224660      0.522790
O       3.83341     13.49920      6.49179         0.702730      0.237207      0.253022
O      15.57280      2.03691      6.68743        -0.227831     -0.734820     -0.039630
O       0.01523     13.59710      6.72648        -0.493953      0.099168      0.260922
O       3.90153      1.92073     10.85023        -0.919397     -0.021488     -0.244831
O       3.94051     13.61958     10.80689        -1.420070     -0.361456     -0.429864
O      15.53433      1.80313     10.82059         0.681082      0.817446     -0.268528
O      15.59542     13.50368     10.59045         0.049683      0.291364      0.073934
O       3.79648      5.74203      2.44496         0.688885      0.346099      0.221076
O       3.87020      5.78250     15.04959        -0.387273      0.118811     -0.058220
O      15.56195      5.90198      2.56893        -0.530294     -0.590717     -0.096957
O      15.58447      5.82401     14.84928         0.178068      0.252478      0.080784
O       3.88413      5.84422      6.70002        -0.090557     -0.206751     -0.162950
O      15.51958      5.85138      6.67314        -0.045654     -0.295012     -0.027165
O       3.83305      5.71812     10.72854        -0.268922      0.416096     -0.131699
O      15.52366      5.85343     11.03617        -0.322711      0.020067     -0.304640
O       3.80775      9.80877      2.49504         0.666226     -0.243269      0.186568
O       3.81266      9.69725     14.94142         0.812491      0.373466     -0.142597
O      15.60277      9.55848      2.47762        -0.515940      0.493293      0.130779
O      15.52864      9.69915     15.11653         1.263856      0.075656     -0.371620
O       3.83570      9.60408      6.51597         1.113272      0.059592      0.275533
O      15.53379      9.77020      6.66306         0.035066     -0.240420      0.020774
O       3.96323      9.69658     10.73381        -1.048186     -0.035900      0.080850
O      15.59106      9.77342     10.70424        -0.018241     -0.411268      0.425722
O       7.74829      1.80174      2.49756        -0.482716      0.291597     -0.224696
O       7.89157      1.91008     15.05375        -1.688016     -0.043960      0.117763
O       7.80162     13.59007      2.47839         0.138850      0.159716     -0.239266
O       7.77621     13.63679     15.02792        -0.760333      0.365852     -0.118020
O       7.68580      1.99128      6.65886         0.658217      0.145031      0.092023
O       7.82877     13.54186      6.54926        -0.622176      0.049984      0.285702
O       7.70700      2.01585     10.87600         0.034645     -0.649088      0.150325
O       7.69554     13.68387     10.79004         1.028954     -0.016900      0.099549
O       7.72325      5.90567      2.37837         0.471672     -0.076828      0.583537
O       7.77079      5.75705     15.05869         0.291882     -0.005993     -0.153751
O       7.72350      5.64374      6.58290         0.290341      0.745583      0.137652
O       7.74635      5.75343     10.76969        -0.289108     -0.027850      0.546920
O       7.71421      9.57970      2.60767         1.119131      0.494410     -0.580109
O       7.77553      9.76145     14.93992         0.000053      0.002196     -0.016060
O       7.84368      9.68790      6.54528        -1.457926      0.172301      0.061046
O       7.78794      9.71176     10.77592        -0.590465     -0.411459     -0.086746
O      11.61123      1.87432      2.62991         0.478671      0.634640     -0.146539
O      11.66195      1.88682     15.04413         0.837349      0.148595     -0.251419
O      11.66151     13.53844      2.60148         0.503038      0.065529     -0.312514
O      11.73785     13.60996     14.91739        -0.416914     -0.242664     -0.215784
O      11.62742      2.16095      6.71474        -0.416761     -1.397249     -0.317988
O      11.72112     13.60546      6.64702        -0.364675      0.404508      0.014968
O      11.72465      1.87623     10.81589        -0.129582      0.071338      0.163021
O      11.55755     13.74811     10.80480         1.031856     -0.655345      0.079409
O      11.69182      5.67435      2.46778        -0.779121      0.077129     -0.129926
O      11.71744      5.92335     15.11151        -0.818687     -0.353799     -0.064966
O      11.70290      5.78265      6.72232        -1.238370      0.225479     -0.393582
O      11.59399      5.64127     10.85408         1.448386      0.744542      0.060766
O      11.66950      9.68619      2.49431        -0.456824      0.291618     -0.017939
O      11.70261      9.73572     14.97035        -1.137437     -0.036966      0.075160
O      11.68713      9.75320      6.62640         0.095660      0.359979     -0.181864
O      11.63355      9.72829     10.76169         0.466359     -0.190850      0.666154
O       1.83383      3.91738      2.52634        -0.185235     -0.587513      0.090915
O       1.82070      3.91444     14.70868         0.502304     -0.604878      0.521364
O       2.04853      0.00196      2.45772        -0.274228      0.122207     -0.062260
O       1.92606     15.45039     14.88107         0.001532      2.100078      0.641047
O      13.59793      3.85934      2.68833         0.185721     -0.136142     -0.507359
O      13.52835      3.86827     14.98216         0.227735      0.304829     -0.063434
O      13.49608     15.56615      2.67741         0.180694      0.085747     -0.614346
O      13.62412     15.59566     14.88300         0.150346     -0.102699      0.204127
O       1.92325      3.82205      6.67609         0.057980      0.431376      0.375663
O       1.87532     15.60091      6.66353         0.211953     -0.588151      0.175989
O      13.58843      3.90766      6.69169         0.296978      0.047239     -0.194618
O      13.66567     15.58932      6.60548        -0.221704      0.256715      0.536530
O       1.84057      3.85771     10.81964         0.073957     -0.480980      0.334436
O       1.88344     15.57793     10.82578         0.315452     -0.667585     -0.714338
O      13.68177      3.87259     10.73221        -0.098280      0.353293      0.501402
O      13.62393     15.55718     10.88836         0.342975      0.021948     -0.637768
O       1.88407      7.75834      2.60890         0.841344      0.342466     -0.278118
O       2.07677      7.81199     15.02510        -1.207892     -0.573231     -0.503269
O      13.56148      7.67633      2.46960        -0.367593      0.374175     -0.134568
O      13.71200      7.79514     15.03502        -0.317038     -0.901228     -0.178844
O       1.86882      7.70253      6.75104         0.023204      0.283139     -0.156857
O      13.58843      7.87131      6.72335         0.058990     -0.110434     -0.381442
O       1.84157      7.73783     10.68255         0.303569      0.618391      0.384298
O      13.62862      7.83776     10.93406        -0.201069     -1.006697     -0.124484
O       1.85027     11.71025      2.54199        -0.065799     -0.091047     -0.107375
O       1.89750     11.71354     14.86422        -0.235290     -0.662845      0.361549
O      13.78675     11.64886      2.46896        -0.257426      0.271964     -0.122820
O      13.69540     11.63248     15.02346        -0.301516      0.949272     -0.091576
O       1.91824     11.54123      6.69494        -0.159459      0.960123     -0.264799
O      13.68329     11.76401      6.71088        -0.144647     -0.900450     -0.072897
O       1.88765     11.62259     10.67732         0.611314      0.152453      0.240050
O      13.50328     11.69149     10.70595         0.031210      0.838811      0.582304
O       5.73357      3.95187      2.52840         0.596915     -0.871711     -0.466882
O       5.79523      3.90659     15.03122         0.266999     -1.007965     -0.038878
O       5.80557     15.52016      2.51137        -0.124140      1.346929     -0.278830
O       5.64636     15.52246     15.04949         1.228467      0.235176     -0.219682
O       5.69761      3.85632      6.63944        -0.063970     -0.111256      0.128999
O       5.85012     15.57093      6.56126        -0.367459     -0.046159      0.297646
O       5.71801      3.87592     10.80258         0.529155      0.085651      0.050126
O       5.78700     15.52110     10.65300         0.101028      0.828780      0.461901
O       5.71285      7.76435      2.46490        -0.189365      0.214959      0.415104
O       5.78530      7.74546     14.90791         0.145435      0.731154      0.328196
O       5.92279      7.79581      6.50565        -0.132622     -0.881775      0.484711
O       5.79114      7.76056     10.73134         0.137917     -0.328411      0.071070
O       5.90867     11.68467      2.66077        -0.313890     -0.874382     -0.135204
O       5.83066     11.66204     14.95571        -0.010497     -0.115623     -0.157159
O       5.81317     11.64104      6.48260         0.171291     -0.458192      0.010505
O       5.84068     11.63188     10.74251         0.095459     -0.421953      0.014740
O       9.48455      3.84010      2.50670         0.695339      0.708793     -0.511461
O       9.87092      3.86616     15.12047        -0.495757      0.291485      0.024639
O       9.73461     15.52547      2.47731        -0.070925      0.154643      0.166189
O       9.76097     15.59504     15.05476        -0.261094     -0.373986     -0.127826
O       9.67554      3.91475      6.84616        -0.046136     -0.597844     -0.504075
O       9.66711     15.55727      6.60798         0.401893      0.466031      0.235992
O       9.75588      3.79010     10.77243        -0.393981      0.641607      0.399638
O       9.72991      0.04385     10.98436        -0.700361     -1.087418     -0.253096
O       9.73495      7.77228      2.54409         0.282537     -0.425546     -0.291625
O       9.69253      7.81149     14.91246         0.198578      0.029427      0.243285
O       9.72130      7.76302      6.61407        -0.273527     -0.683480      0.049846
O       9.75569      7.74059     10.98632         0.130995     -0.282795     -0.460550
O       9.68065     11.65466      2.45480        -0.062748     -1.541806     -0.121584
O       9.64520     11.74673     15.09853         0.567525     -1.038037     -0.411093
O       9.67849     11.63858      6.58462         0.135911      0.786687      0.077717
O       9.69401     11.61899     10.77295         0.079195      1.423096      0.255869
