  # total energy = -7879.26240541 
CRSYTAL
PRIMVEC
    15.6080000000000005    0.0000000000000000    0.0000000000000000
     0.0000000000000000   15.6080000000000005    0.0000000000000000
     0.0000000000000000    0.0000000000000000   16.6239999999999988
PRESSURE
-0.557752 -0.661321 -0.216015 0.032509 -0.188055 -0.113034
PRIMCOORD
320 1
Pb       3.75688      3.83658      4.11347         0.019859     -0.494733      0.431419
Pb       3.74500      3.74595     16.61128         0.084280     -0.008871      0.061274
Pb       3.93449     15.42903      4.31298        -0.323219      0.727058     -0.338415
Pb       3.99445     15.59364      0.08576        -0.304154     -0.264692      0.069285
Pb      15.56643      3.87247      4.14154         0.186198     -0.002999      0.448932
Pb      15.57305      3.97179     16.59577         0.030340     -0.478443      0.129895
Pb       0.10860     15.59873      4.29677         0.197328      0.240069     -0.836600
Pb      15.60418     15.54656      0.02723         0.064109      0.098071      0.123342
Pb       4.03206      4.05695      8.32647         0.091652     -0.734959     -0.600514
Pb       3.88194      0.05723      8.49736         0.276554     -0.299895     -0.650611
Pb       0.11782      3.94888      8.23683        -0.342757     -0.656782     -0.030595
Pb       0.01875      0.08647      8.34272         0.000374     -0.236568      0.145973
Pb       3.96109      3.92009     12.30064        -0.450650     -0.036392      0.967300
Pb       3.92339      0.10812     12.32753        -0.257504     -0.110855      0.090377
Pb      15.49350      3.76604     12.29538         0.536527      0.505219      0.471828
Pb      15.42163     15.57697     12.33504         1.326801     -0.387811     -0.164143
Pb       3.92484      7.66631      4.25343         0.163173      0.589564     -0.412236
Pb       3.84641      7.83361      0.03988         0.111794      0.257037     -0.918270
Pb      15.52047      7.75406      4.11370        -0.173820     -0.332582      0.180242
Pb       0.02450      7.79155      0.02482        -0.297368     -0.252000     -0.208215
Pb       3.96992      7.86866      8.25292        -0.206881     -0.813068      0.358365
Pb       0.19769      7.87217      8.01689        -1.134664     -0.023061      1.135267
Pb       3.74928      7.82128     12.49918         0.563854     -0.258248     -0.212693
Pb       0.03865      7.74144     12.40043        -0.134444      0.025310     -0.393998
Pb       4.00679     11.60452      4.28828        -0.449419      0.122582     -0.047325
Pb       3.91704     11.63475     16.59079        -0.154793      0.326171     -0.098467
Pb       0.06839     11.70642      4.25227         0.152896      0.236662     -0.769782
Pb       0.03827     11.63140     16.61810        -0.271474      0.692336     -0.032990
Pb       3.88862     11.45703      8.30624         0.311406      1.657122     -0.035939
Pb      15.53645     11.72792      8.39898         0.095657     -0.063190     -0.251064
Pb       3.78199     11.74844     12.62249        -0.079723      0.099492     -0.717717
Pb      15.37453     11.70481     12.43369         0.376372     -0.031241     -0.019066
Pb       7.84249      4.07816      4.12777        -0.074780     -0.759656     -0.405828
Pb       7.70570      3.70000      0.11422         0.146222      0.296471     -0.280020
Pb       7.83935      0.04803      4.14985        -0.062633     -0.006730      0.020459
Pb       7.80971     15.39331     16.55864         0.151671      0.518012      0.846380
Pb       7.85168      3.98936      8.07859        -0.209686     -0.840805      0.802174
Pb       7.71482     15.56747      8.39660         0.066811      0.088255     -0.173001
Pb       7.77338      4.15163     12.47410        -0.152525     -0.222562      0.346726
Pb       7.80561      0.10368     12.44908        -0.039667     -0.362992     -0.758771
Pb       7.70755      7.76033      4.09053        -0.135695      0.368142     -0.534399
Pb       7.91567      7.68341      0.02325        -0.758748      0.149844     -0.658653
Pb       7.70345      7.78735      8.41802         0.187932     -0.287049     -0.178915
Pb       7.70145      7.95894     12.58339         0.001115     -1.028917      0.286684
Pb       7.74525     11.66468      4.13565        -0.173810      0.068517      0.161711
Pb       7.90701     11.50299      0.04165        -0.673702      0.461209     -0.062569
Pb       7.69824     11.57933      8.44686         0.164624      0.678758     -0.785740
Pb       7.69954     11.74845     12.55785         0.479649      0.080994     -0.475034
Pb      11.56258      4.01790      3.98833         0.148770     -0.507115      0.237158
Pb      11.63876      3.67606     16.39762         0.207088     -0.088192      0.846771
Pb      11.96912      0.19663      4.19546        -0.823233     -0.388532     -0.358639
Pb      11.77627     15.57517      0.04836        -0.465370      0.047817     -0.194269
Pb      11.71371      3.64142      8.06426        -0.356953      0.801751      1.511868
Pb      11.76161     15.38467      8.25680        -0.609663      1.007127      0.323132
Pb      11.54555      3.94999     12.38229         0.084281      0.025541     -0.265353
Pb      11.86348      0.02773     12.56472        -0.765979     -0.167786     -0.402598
Pb      11.66439      7.97528      4.12377         0.350949     -0.600260     -0.240301
Pb      11.68581      7.73506     16.55343         0.292960     -0.069464      0.162387
Pb      11.71912      7.75868      8.18827         0.284985      0.275011      0.541854
Pb      11.91369      7.51199     12.39839        -0.573343      0.476801     -0.020452
Pb      11.51215     12.06846      4.11814         1.104951     -0.296390      0.594300
Pb      11.72165     11.76418      0.02960         0.245827      0.034207      0.011128
Pb      11.56662     11.49705      8.09753         0.036339      0.135679      0.387309
Pb      11.63045     11.54081     12.50077        -0.285324      0.357314     -0.262535
Ti       1.93140      1.97300      2.14376        -0.242183     -0.685076      1.758487
Ti       1.92047      1.96631     14.48478        -0.032036      0.138251     -0.754738
Ti       1.91519     13.68011      2.21524        -0.605239      0.048636      0.328963
Ti       1.87904     13.82863     14.61680         0.045072     -1.221161      0.709428
Ti      13.67559      2.02562      2.19811        -0.060817     -0.208666     -0.714050
Ti      13.74823      1.82236     14.60279        -0.710826      0.652143      1.277802
Ti      13.66582     13.69120      2.25603        -0.375577     -0.023706     -0.459567
Ti      13.61915     13.58543     14.71141         0.191069     -0.219760      0.566669
Ti       2.11637      1.84157      6.42489         0.036007      1.036145     -0.261921
Ti       1.91681     13.61413      6.46337         1.295985      0.184851      0.067254
Ti      13.71337      1.87645      6.44541         0.549755     -0.051006      0.266425
Ti      13.64836     13.57345      6.39773        -0.238142      0.680173     -0.074501
Ti       1.92664      1.97549     10.45036         0.071358     -0.470445      0.047811
Ti       1.87022     13.59742     10.47923         0.494857      0.986800     -0.513467
Ti      13.59334      1.94642     10.48314         0.215797      0.065477     -1.781988
Ti      13.52207     13.57215     10.39969         0.443924      0.284929      0.229474
Ti       1.92942      5.90121      2.24179        -1.260335     -1.096892      0.056320
Ti       1.82576      5.87873     14.65398         0.742550     -0.283245      0.756658
Ti      13.60092      5.85131      2.26871         0.085426     -0.644029     -0.292447
Ti      13.58090      5.70551     14.68222         1.052508      0.034290     -0.434542
Ti       1.92750      5.73339      6.38999         0.841017     -0.461489     -0.556352
Ti      13.51432      5.80485      6.39887         0.920473      0.189541     -0.500047
Ti       1.93059      5.87854     10.44512         0.872810     -0.200465     -0.221879
Ti      13.73246      5.84073     10.40501        -1.278929     -0.473005     -0.307943
Ti       1.88898      9.71611      2.27237         0.981846      1.108150      0.126733
Ti       1.84481      9.84352     14.67166         0.677774     -1.097376     -0.364786
Ti      13.70405      9.82351      2.15231        -1.080253      0.229436      0.543187
Ti      13.64190      9.65418     14.70052        -1.206723      0.657644      0.735743
Ti       2.02776      9.77555      6.32157        -0.433128      0.631797     -0.657254
Ti      13.72140      9.76638      6.19352        -0.591372     -0.328044      0.828046
Ti       1.99142      9.77649     10.44572        -0.253289      0.028467      0.060971
Ti      13.64214      9.77260     10.45303         0.047739     -0.903138     -0.087833
Ti       5.76468      1.94855      2.26001         0.171504     -0.239858      0.225061
Ti       5.84346      1.86434     14.71782        -0.530550      0.615001     -0.677384
Ti       5.72481     13.68608      2.26527         0.382681      0.106485     -0.476628
Ti       5.76101     13.65823     14.61858        -0.018791     -0.771756      2.031338
Ti       5.95049      1.83021      6.31466        -2.032739      1.333617      1.027655
Ti       5.85196     13.66504      6.42493        -0.753397     -0.489941      0.894116
Ti       5.87608      1.99253     10.44989        -0.135653     -0.555394     -0.536158
Ti       5.76067     13.60381     10.48775         0.653238      0.720129     -1.353553
Ti       5.63710      5.77723      2.09071         1.658596      0.020150      0.062261
Ti       5.67878      5.72671     14.85405         1.383284      1.037713     -1.747011
Ti       5.91100      5.84592      6.23065        -1.865377     -0.797989      1.026667
Ti       5.81367      5.88568     10.56851        -0.461796      0.315578      1.432098
Ti       5.78531      9.76839      2.15198         0.151099     -0.240943      0.911042
Ti       5.78750      9.69811     14.65347         0.272670     -0.324032      1.674200
Ti       5.92391      9.68121      6.40925         0.183317      0.978665     -0.676549
Ti       5.87328      9.72879     10.58157        -0.740770     -0.188371      0.664834
Ti       9.64316      1.95468      2.23889         0.784447     -0.137472     -1.071297
Ti       9.69309      1.82005     14.65507         0.618357      0.654650      1.529379
Ti       9.59706     13.71053      2.22373         1.511769      0.254607     -1.000608
Ti       9.66633     13.56736     14.69189         0.873320      0.713325      0.241621
Ti       9.73333      1.97203      6.27999        -0.486288     -0.742145     -0.285411
Ti       9.66103     13.71652      6.48599        -0.848422      0.297471     -0.291071
Ti       9.70595      1.88779     10.46434        -0.187047      0.325668      0.358210
Ti       9.72708     13.55632     10.49537        -0.640841      0.176314      0.715944
Ti       9.66410      5.88885      2.14500         0.375134     -0.615572     -0.178096
Ti       9.70486      5.79335     14.76030        -1.245358     -0.348893     -0.526694
Ti       9.71405      5.97100      6.34245         0.048413     -1.867881     -0.475159
Ti       9.64175      5.84974     10.41715         0.872747     -0.542696      0.450154
Ti       9.78132      9.76777      2.21080        -0.740327     -0.117983     -0.898823
Ti       9.74668      9.77825     14.65793        -0.094534     -0.883572      0.148513
Ti       9.67978      9.69721      6.28566        -0.096884      0.767406      1.520059
Ti       9.82458      9.59867     10.55219         0.146999      1.097604      0.402719
O       1.92126      1.89570      0.40524        -0.082163      0.022163     -1.171862
O       1.87143      1.89265     12.64312         0.077503      0.486019      1.708782
O       1.80765     13.88675      0.45897         0.074455     -0.185026     -0.667806
O       1.97477     13.58556     12.87444         0.008005     -0.120155     -0.445775
O      13.78043      2.11044      0.37998        -0.337142     -0.540552      0.936579
O      13.85145      1.68950     12.81266        -0.907291      0.334534     -1.117058
O      13.60654     13.73363      0.45645         0.529071     -0.294223      0.018185
O      13.64866     13.70961     12.91446        -0.128770     -0.224443     -0.586990
O       1.92650      2.04060      4.63648         0.282455     -0.381037      0.216506
O       1.89885     13.65760      4.60892         0.177020     -0.128483      0.735314
O      13.67709      1.76831      4.67317        -0.010288      0.320909     -0.572471
O      13.52392     13.72695      4.62307         0.240228     -0.014704     -0.449413
O       2.12474      1.91140      8.64286        -0.623796      0.025499      0.158873
O       1.89093     13.68882      8.65051        -0.374924     -0.404746      1.004729
O      13.50357      1.86858      8.62745         0.233206      0.470201      1.248411
O      13.70174     13.49384      8.62439        -0.468684      0.131853     -0.073908
O       1.80021      5.87372      0.47720         0.420651      0.500591     -0.391474
O       1.89065      5.78815     12.91806        -0.587310      0.700649     -1.153239
O      13.62905      5.69202      0.49790         0.244847      0.201366     -0.038760
O      13.82350      5.75926     12.89063        -0.667522      0.604403      0.060059
O       1.85428      5.62126      4.59603         0.538802      1.162857      0.191706
O      13.56738      5.77285      4.60583        -0.087848      0.251492      0.621046
O       2.17833      5.91599      8.66452        -0.844094     -0.289433      0.313851
O      13.44605      5.80052      8.66306         0.763252      0.290922     -0.320695
O       2.00317      9.67804      0.47731        -0.421423      0.039978      0.009478
O       1.80973      9.67714     12.86534         0.227595      0.486268      0.149479
O      13.69516      9.74087      0.37174        -0.095013     -0.183899      0.482758
O      13.44133      9.99369     12.93834         0.901071     -1.043157     -0.184023
O       1.96786      9.86243      4.49962        -0.045616     -0.068428      0.937767
O      13.58561      9.89007      4.46172         0.158713     -0.787961     -0.138490
O       1.97619      9.74682      8.63424        -0.142694      0.358779      0.359065
O      13.60536      9.75979      8.69929         0.055078      0.069429     -0.666141
O       5.79666      2.11603      0.46015        -0.343857     -1.027691     -0.166977
O       5.79973      1.69886     12.89478         0.428351      0.575187      1.010995
O       5.72041     13.74746      0.45535         0.104752     -0.506939      1.109781
O       5.77997     13.64707     12.87647        -0.107552      0.158676     -0.475704
O       5.77963      1.95286      4.56338         0.351545     -0.001810     -0.919407
O       5.69390     13.79132      4.61501         0.162596     -0.412685     -0.376537
O       5.75959      1.88102      8.66252         0.538682      0.447576      0.810723
O       5.95440     13.59793      8.57357        -0.053709     -0.155883      2.582440
O       5.70216      5.80937      0.28309        -0.253722      0.403274      1.597627
O       5.92183      5.73690     12.96918        -0.241423     -0.062564      0.449280
O       5.78687      5.81457      4.46786         0.257629      0.281831     -0.625092
O       5.75422      6.03434      8.84714        -0.054446     -0.352679     -1.427818
O       5.62585      9.80202      0.38142         0.348472      0.159421      0.410765
O       5.74874      9.76722     12.91138         0.078252     -0.057737     -1.809168
O       6.02242      9.68919      4.62682        -0.380567     -0.140953      0.041621
O       5.86610      9.68082      8.76301         0.280927     -0.029277      0.341764
O       9.79360      1.85159      0.43612        -0.303088      0.520144      0.061121
O       9.76997      1.82612     12.93226        -0.236948     -0.255700     -1.648250
O       9.66957     13.48557      0.41607        -0.082466      0.303823      0.699821
O       9.67255     13.56434     12.92709         0.310736      0.317547     -0.123890
O       9.58741      1.98562      4.47271         0.196454     -0.203776      0.363153
O       9.60743     13.73200      4.71609         0.547942     -0.347821     -1.235457
O       9.67915      2.00063      8.72920         0.133738     -0.067493     -0.374471
O       9.69656     13.69122      8.72634        -0.180709     -0.448935     -0.564766
O       9.76128      5.94535      0.34262        -0.183397     -0.045205      0.029342
O       9.68911      5.81270     12.96293         0.119466     -0.290537     -0.252567
O       9.62477      5.82492      4.52001        -0.019826      0.357485      0.325216
O       9.76488      5.90856      8.66092        -0.518202     -0.062827      0.038094
O       9.50923      9.74140      0.32781         1.034255      0.047470      1.560648
O       9.78915      9.93421     12.85783         0.084806     -0.714379      0.410755
O       9.51925      9.64797      4.55159         0.316290     -0.198025     -0.788065
O       9.84964      9.72203      8.76002        -0.420690     -0.438983      0.400402
O       3.83578      1.84000      2.54690         0.246154      0.241060     -0.194087
O       3.83695      1.81897     14.84215        -0.190367      0.035420      0.415850
O       3.81517     13.84597      2.52819         0.340844     -0.497392     -0.065777
O       3.79245     13.76741     15.16833         0.373451      0.091070     -1.109772
O      15.56813      2.07181      2.60151         0.049814      0.026699     -0.427205
O      15.57863      2.08325     14.83415         1.002453     -0.035725      0.317236
O      15.55875     13.63732      2.60143        -0.380280     -0.063251      0.165057
O      15.56119     13.50364     14.95075         0.383944      0.124367      0.269110
O       3.99527      1.99536      6.70654        -0.915000      0.000770     -0.350938
O       3.94483     13.58796      6.90385        -0.478332      0.135039     -0.987429
O       0.04439      1.84919      6.73428        -0.595785      0.060177      0.076661
O      15.56479     13.72318      6.67372         0.236277     -0.600337     -0.189278
O       3.93214      1.91676     10.80589        -0.626864     -0.206273     -0.070913
O       3.87204     13.75027     10.83458         0.244761     -0.274293     -0.348774
O      15.57792      2.02901     10.63513        -0.434800     -0.224575     -0.033481
O       0.00776     13.36574     10.75656        -0.804362      0.491772      0.005251
O       3.82764      5.97638      2.56290         0.101813      0.378596     -0.147499
O       3.84073      5.98335     14.87244        -0.882074      0.243275      0.521792
O       0.01847      5.77751      2.66240        -0.786140      0.053894     -0.363810
O      15.53707      5.78803     15.06850         0.234761      0.093329     -0.125619
O       3.87286      5.71186      6.65460         0.138536      0.797270     -0.555200
O      15.57785      5.83307      6.79533         0.228031      0.201441     -0.398555
O       3.88701      5.84539     11.01229        -0.923401      0.160765     -0.555416
O       0.03447      5.84319     10.66325         0.186763      0.046818      0.133043
O       3.85357      9.79710      2.61331        -0.176653     -0.477636     -0.062028
O       3.88355      9.68400     14.94160        -1.372444      0.017976      0.104148
O      15.53982      9.85603      2.58563         0.567248     -0.319744     -0.138947
O      15.48770      9.75569     15.07066         1.236527      0.332466     -0.523686
O       3.98983      9.74869      6.66802        -0.693628      0.028261     -0.336450
O       0.03754      9.87697      6.51740        -0.006137     -0.437363      0.149834
O       3.86521      9.61271     10.74720        -0.056460      0.644833      0.287489
O      15.53821      9.80565     10.72345         0.804339      0.208371      0.428272
O       7.71427      1.95693      2.43652        -0.207686      0.357673      0.304953
O       7.77730      1.94438     15.05321        -0.482637     -0.118854     -0.468082
O       7.76991     13.48423      2.48478        -0.502345      0.414458      0.229314
O       7.79098     13.57863     15.01171        -1.007340      0.241659     -0.387410
O       7.73065      1.89729      6.66323         1.713174      0.755417      0.133454
O       7.72504     13.59205      6.61154         0.680402      0.425531      0.544310
O       7.71078      1.95948     10.80163         0.975160      0.026864      0.225478
O       7.82936     13.51972     10.87651        -0.732419      0.229170     -0.151120
O       7.76803      5.62667      2.38115        -1.101721      1.167414     -0.023975
O       7.72358      5.68987     15.07022         1.335951      0.053586      0.140689
O       7.72541      5.87154      6.67141         1.148401      0.285989     -0.163482
O       7.68534      5.86360     10.79163         1.376966     -0.190258      0.023519
O       7.71651      9.92695      2.40634         0.247285     -0.175837      0.060401
O       7.69993      9.90439     14.95421         0.906247     -0.406768     -0.382062
O       7.77722      9.51615      6.87671         0.298038      0.600878     -0.481754
O       7.79182      9.72982     11.01153        -0.440198      0.156061     -0.941309
O      11.63772      2.05072      2.45271         1.008340     -0.525920      0.580694
O      11.79328      1.72411     14.87776        -0.519376      0.269257      0.080368
O      11.66979     13.71136      2.38656        -0.243109     -0.130630      0.950363
O      11.69939     13.64818     15.04391        -0.427254      0.088761     -0.075334
O      11.59409      1.84860      6.57843         0.721355      0.090029     -0.152829
O      11.58698     13.63993      6.69564         0.742352     -0.397853      0.025186
O      11.72318      1.98108     10.81943        -0.380264     -0.361627      0.348868
O      11.69608     13.73205     10.76136        -0.026136      0.086811      0.006609
O      11.58553      5.81484      2.45249         0.535547      0.438064      0.397978
O      11.73926      5.74447     15.01760        -1.056484      0.812653     -0.273240
O      11.60696      5.88454      6.69258         0.573502      0.024075     -0.652088
O      11.76721      5.79590     10.78979        -1.060392      0.471021      0.611800
O      11.67710      9.55290      2.48660        -0.653238      0.281888     -0.531108
O      11.67538      9.59921     15.15619        -0.668518      0.756439     -0.754257
O      11.66962      9.64200      6.55628        -0.519228      0.076424     -0.183097
O      11.74266      9.63610     10.81315        -1.083569     -0.211488      0.278845
O       2.09099      3.96459      2.36568        -0.282729     -0.615114      0.435310
O       2.04971      3.93893     14.98903        -0.681612     -0.506762     -0.368581
O       1.78041      0.10440      2.54427        -0.144165     -0.743185      0.254422
O       1.65257      0.03970     14.71101         0.324903      0.519116      0.532206
O      13.60384      3.89276      2.72539        -0.035482     -0.006339     -0.549578
O      13.52917      3.79616     14.83855         0.345721      0.177037      0.065250
O      13.70430      0.01069      2.52879        -0.277336      0.751903     -0.064321
O      13.70511     15.53716     15.06281         0.297402      0.333388     -0.365782
O       1.89758      3.86476      6.59741        -0.080226      0.406540      1.013407
O       2.08492     15.55014      6.68164        -0.322579      0.214937     -0.196327
O      13.63775      3.82810      6.71636         0.082022      0.446088     -0.427221
O      13.56998     15.57526      6.78614         0.194988     -0.503782     -0.366757
O       1.89787      3.87868     10.66606         0.394655      0.807857      0.166086
O       1.75290      0.02343     10.71268         0.496247     -0.660768     -0.076070
O      13.67428      3.92398     10.82877        -0.112686     -0.860619     -0.179789
O      13.77309     15.55685     10.58091        -0.297504     -0.099279      0.631486
O       1.72055      7.82272      2.61959         0.817259      0.101624     -0.166754
O       1.75772      7.88661     15.04355         0.349849     -0.876929     -0.295419
O      13.70305      7.72390      2.57328        -0.164434      0.555216      0.007960
O      13.63008      7.73936     15.02862         0.068802      0.025155     -0.430524
O       2.07637      7.90313      6.69514        -0.388760     -0.857906     -0.921895
O      13.69037      7.81064      6.54231        -0.115643     -0.059897      0.094437
O       1.91984      7.81808     10.64424        -0.335037     -0.268991      0.936413
O      13.68852      7.74332     10.84130         0.176504      0.336626      0.178095
O       1.83779     11.77359      2.34089         0.310374     -0.494837      0.547881
O       2.00215     11.68955     14.99723        -0.310278     -0.150857     -0.007015
O      13.46097     11.65769      2.38127         0.329879      0.655933      0.211066
O      13.54959     11.66558     15.05051         0.059563      0.277003      0.055874
O       2.10411     11.69775      6.71959        -0.769103     -0.240901     -0.236891
O      13.61233     11.67785      6.48164         0.008329      0.090361      0.757074
O       2.11513     11.72978     10.73770        -0.212314     -1.122657      0.140494
O      13.53269     11.67672     10.66827         0.081249      0.237157      0.706737
O       5.60455      3.92349      2.37624         0.217971      0.331859      0.441598
O       5.68509      3.87735     15.17154         0.159707     -1.187408     -1.003160
O       5.88352      0.00899      2.55106        -0.133983     -0.468776     -0.132951
O       5.87659     15.59690     15.17954        -0.143341     -0.049902     -0.867988
O       5.90935      4.00502      6.74545        -0.065094     -0.519621     -0.199026
O       5.86404      0.01997      6.69853        -0.111378     -0.818092     -0.212691
O       5.75199      3.89051     10.84063         0.377359      0.166340     -0.430115
O       5.86139     15.54330     10.65334         0.166508      0.052659      0.538235
O       5.81285      7.84182      2.48555         0.071118     -0.414257     -0.078549
O       5.95245      7.82621     15.05643        -0.388260     -0.128372     -0.195314
O       5.74168      7.72128      6.60367         0.178441      0.324913      0.145884
O       5.71424      7.80211     10.96148         0.793406      0.529720      0.018963
O       5.69492     11.71876      2.76725         0.310237      0.376011     -1.100392
O       5.69869     11.73583     14.94581        -0.233900      0.844616     -0.153461
O       5.94535     11.63681      6.59588        -0.125371     -0.487178      0.224102
O       5.76039     11.70806     10.80538         0.060221     -0.835541      0.130220
O       9.62450      3.89077      2.39755         0.408800      0.497302      0.484365
O       9.84872      3.78084     14.86714        -0.198182      0.315134      0.359413
O       9.68752      0.00739      2.47937        -0.524323     -0.913895      0.161413
O       9.73346     15.57560     15.15175        -0.201330     -0.938594     -0.751885
O       9.77536      3.90404      6.55479        -0.757951      0.045129      0.257633
O       9.62915      0.06412      6.72394         0.072733     -0.821707     -0.099040
O       9.71148      3.94707     10.79315        -0.059974     -0.077017      0.326978
O       9.59086      0.03146     10.78142         0.421954     -0.348835      0.154264
O       9.55701      7.82206      2.49449         0.106377     -0.041882     -0.057874
O       9.60944      7.78168     14.85257         0.162658      0.124435      0.535546
O       9.59270      7.72018      6.71461         0.697291      1.465905     -0.280153
O       9.60718      7.71514     10.90890         0.570142      0.632604     -0.267300
O       9.89315     11.64917      2.64689        -1.104733      0.044101     -0.913611
O       9.71255     11.65656     14.94599         0.536335      0.238395      0.383139
O       9.55729     11.59542      6.61696         0.605679     -0.242832      0.283526
O       9.79157     11.66094     10.79046         0.199734     -0.068446     -0.241882
