  # total energy = -7881.59256355 
CRSYTAL
PRIMVEC
    15.6080000000000005    0.0000000000000000    0.0000000000000000
     0.0000000000000000   15.6080000000000005    0.0000000000000000
     0.0000000000000000    0.0000000000000000   16.6239999999999988
PRESSURE
-0.440207 -0.359375 -0.054639 -0.124824 -0.166092 -0.001338
PRIMCOORD
320 1
Pb       4.05264      3.98434      4.25047        -1.156964     -0.118801     -0.495326
Pb       3.95647      3.98249     16.51638        -0.415710     -0.212470      0.729076
Pb       3.93623      0.11391      4.04723        -0.153913     -0.490797      0.159708
Pb       3.82918      0.01352     16.44239         0.269182     -0.406387      0.353967
Pb       0.04710      3.85551      4.15209         0.111168      0.040333      0.160564
Pb      15.58696      3.76055     16.60570        -0.494266      0.661604      0.044618
Pb      15.48526      0.01468      4.08266         0.033216     -0.304810      0.293501
Pb      15.55829      0.04545     16.59155        -0.448178     -0.821435     -0.309966
Pb       3.81348      3.81528      8.24524         0.168984      0.079260      0.003728
Pb       3.96977     15.59209      8.14230        -0.341776      0.180690      0.427928
Pb      15.52683      3.89898      8.31586        -0.016553      0.013166     -0.189531
Pb       0.01234     15.56226      8.23897        -0.119324      0.021205      0.108475
Pb       3.71551      3.92403     12.64255         0.056141     -0.209929     -0.642403
Pb       3.86526     15.49768     12.55381        -0.029661     -0.025827     -0.309980
Pb      15.60095      3.96396     12.61667        -0.333018      0.187963     -0.789140
Pb       0.17199     15.56049     12.46579        -0.416873      0.238099     -0.041958
Pb       3.78541      7.89768      4.00980         0.169473     -0.940084      0.378771
Pb       3.94847      7.66796     16.57383        -0.645697      0.633014      0.718764
Pb       0.08136      7.86459      4.12940         0.027008     -0.561632      0.094172
Pb      15.50504      7.73568     16.59065         0.353697      0.328853      0.307175
Pb       3.85518      7.73974      8.33982        -0.238404      0.229466     -0.420821
Pb      15.34545      7.70257      8.53046         0.674804      0.198536     -0.519936
Pb       3.96628      7.82702     12.39173        -0.140199      0.094244      0.190884
Pb      15.40766      7.73976     12.51989         0.527313      0.339644     -0.289773
Pb       3.82680     11.68756      4.05598         0.063966      0.305437     -0.061951
Pb       3.93512     11.64286     16.56325        -0.290274      0.250427     -0.034154
Pb      15.56145     11.71024      4.11818         0.050545      0.170170     -0.116802
Pb      15.53419     11.77428     16.59756        -0.153336     -0.080594      0.119716
Pb       3.85024     11.88941      8.29498        -0.078405     -0.517383     -0.059230
Pb       0.05853     11.63891      8.11653        -0.479714      0.193718      0.226852
Pb       3.94553     11.61698     12.24446        -0.120283      0.127576      0.805212
Pb       0.08996     11.60450     12.42009         0.033000     -0.196096     -0.033446
Pb       7.78342      3.66737      4.14058         0.276001      0.462571     -0.054753
Pb       7.87487      3.94027     16.54179        -0.047946     -0.007152      0.581959
Pb       7.81318     15.48463      4.15570         0.040425     -0.452197     -0.456007
Pb       7.83270      0.13006     16.55611        -0.090839     -1.042417      0.428918
Pb       7.66633      3.79259      8.53920        -0.072139      0.283509     -0.436361
Pb       7.81471      0.00320      8.24754        -0.076990      0.062904      0.350284
Pb       7.78631      3.60462     12.49759         0.195638      0.687587      0.362178
Pb       7.78476     15.52660     12.48582         0.265894     -0.562117     -0.220896
Pb       7.94744      7.82278      4.14129        -0.893179      0.239320      0.444808
Pb       7.66327      7.79575     16.56167         0.603116      0.239464      0.387231
Pb       7.86787      7.85367      8.16787        -0.007012     -0.307448      0.038544
Pb       7.87627      7.61274     12.38188         0.265220      0.813754      0.686984
Pb       7.87576     11.65181      4.09670        -0.189779      0.257909      0.190294
Pb       7.77257     11.81827     16.48877        -0.116662     -0.363895      0.202901
Pb       7.74483     11.71113      8.19543         0.099311     -0.272956     -0.094469
Pb       7.83480     11.56303     12.37122         0.008900      0.825822      0.454969
Pb      11.76820      3.75371      4.29274         0.109457      0.167400     -0.525156
Pb      11.71206      4.10846      0.28922         0.262336     -0.363427     -0.770765
Pb      11.40939     15.52647      4.14327         0.403925     -0.363518      0.025147
Pb      11.66913     15.59007     16.49645         0.419934     -0.033791      0.311939
Pb      11.65855      4.14218      8.43078         0.015105     -0.549736     -0.205153
Pb      11.64310      0.15553      8.38525         0.152104     -0.260251     -0.173687
Pb      11.83306      3.74654     12.49451        -0.095179      0.460336     -0.396334
Pb      11.53866     15.51195     12.35389         0.722157      0.280552      0.797902
Pb      11.62548      7.66768      4.06885         0.237002      0.321715      0.345423
Pb      11.69577      7.85678      0.02393        -0.223500      0.154040      0.270803
Pb      11.65800      7.81323      8.31773        -0.488784     -0.236790     -0.185867
Pb      11.46436      8.00390     12.50200         0.548702     -0.531796      0.056562
Pb      11.84706     11.36359      4.20733        -0.471334      0.921427      0.170423
Pb      11.77376     11.64922     16.59218        -0.062229     -0.083255      0.116431
Pb      11.78174     11.89943      8.42824         0.176063     -0.246109     -0.775756
Pb      11.79461     11.77213     12.41372        -0.446749     -0.471485      0.668433
Ti       1.88514      1.87693      2.20251         0.486939      1.380838      0.955602
Ti       1.92933      1.99550     14.73507         0.117328     -0.657167     -1.096943
Ti       1.86649     13.68120      2.19191        -0.630170     -0.852947     -0.613831
Ti       1.94210     13.55512     14.63591        -0.479675      0.212639      1.085840
Ti      13.62630      1.85266      2.24085        -0.428832      0.760581     -0.727567
Ti      13.65332      1.98851     14.64287        -1.157173     -0.665233      0.510821
Ti      13.48685     13.59919      2.27458         0.760411     -0.343380     -0.757657
Ti      13.60963     13.66628     14.53303         0.137862     -0.095158      2.104059
Ti       1.86560      1.96314      6.39685        -0.081396      0.547941     -0.019010
Ti       1.91797     13.71753      6.23554        -0.925948     -0.450654      0.067762
Ti      13.59527      1.89333      6.48738         0.023881      0.561362     -0.061992
Ti      13.55844     13.64991      6.30943         0.335610     -0.707931      0.970140
Ti       1.91247      2.00846     10.57066         0.241609     -0.566085     -0.944764
Ti       1.93196     13.67252     10.50279        -0.043284     -0.721453     -0.514489
Ti      13.69625      1.86674     10.55658        -0.064275      0.556266     -0.078290
Ti      13.71755     13.63274     10.53819         0.255110      0.408919     -1.137680
Ti       1.92516      5.79883      2.19382         0.010063      0.134385     -0.054008
Ti       1.87640      5.92798     14.72140        -0.841623     -0.234789      0.338960
Ti      13.67966      5.73968      2.22517         0.143761      1.044425      0.039593
Ti      13.56980      5.88116     14.71344         0.371434     -0.530230      0.239818
Ti       1.86361      5.94818      6.32030        -0.717570     -0.059568     -0.427113
Ti      13.57793      5.80771      6.35093         0.287070     -0.136968      0.193570
Ti       1.95227      5.89995     10.59727        -0.861671      0.116154     -0.237781
Ti      13.58563      5.84430     10.60066        -0.064677     -0.180924      0.462655
Ti       1.91933      9.78956      2.12449        -0.449633     -0.435193     -0.578806
Ti       1.95463      9.79096     14.67036        -0.635691     -0.738917      0.343631
Ti      13.72117      9.61748      2.26741        -0.333147      0.552118     -1.242249
Ti      13.64674      9.69575     14.69078        -0.533397      1.026354     -0.211733
Ti       1.98784      9.77302      6.24743        -1.450285     -0.785373      1.288171
Ti      13.63947      9.61078      6.43239         0.706930      1.239354      0.150533
Ti       2.03639      9.67304     10.45676        -1.689339      0.691481      0.805287
Ti      13.67698      9.79707     10.59174         0.144640     -0.701931      0.890225
Ti       5.81425      2.00669      2.14063        -0.086188     -1.231292      0.737387
Ti       5.89158      1.97162     14.72849        -0.361684     -0.978443     -0.048055
Ti       5.77280     13.70255      2.14206         0.828628     -0.087999     -0.132411
Ti       5.83717     13.63815     14.64532         0.167386     -0.075755     -0.529655
Ti       5.92363      1.91460      6.27770        -0.480175      0.374460      0.729306
Ti       5.80737     13.63427      6.24756         0.284520     -0.509184      0.901121
Ti       5.72211      1.83311     10.67574         0.324861      0.615852     -0.374652
Ti       5.77328     13.63127     10.49051         1.341978     -0.203489     -0.040165
Ti       5.88015      5.82588      2.28169        -1.175029      1.339340     -0.421338
Ti       5.76139      5.91944     14.64111         1.500197     -0.448677     -0.188890
Ti       5.71029      5.86985      6.35613         1.677921     -0.246530      0.132435
Ti       5.86479      5.65663     10.68343         0.121616      0.397353     -1.219441
Ti       5.79807      9.80926      2.20053         0.817434     -0.477623     -0.110627
Ti       5.79411      9.76886     14.66792         0.890977      0.498210     -0.721037
Ti       5.74241      9.73772      6.31657         0.841551      0.153871      0.377561
Ti       5.96929      9.63829     10.48994         0.621774      0.237410     -0.029948
Ti       9.74960      1.93055      2.13084         0.111097     -0.195252      0.277551
Ti       9.83146      1.98863     14.74507         0.560385     -1.303957     -0.526800
Ti       9.68154     13.58510      2.11599        -0.208090      0.102899      0.772894
Ti       9.76327     13.58052     14.69437        -0.202426      0.662993     -0.217615
Ti       9.76693      2.02115      6.39821         0.219027     -0.648856      0.633211
Ti       9.68680     13.65608      6.44051         0.794277     -0.253897     -1.115655
Ti       9.78355      1.91547     10.58141        -0.326963      0.135312     -0.861838
Ti       9.79130     13.60029     10.44368        -1.386048     -0.059636     -0.378695
Ti       9.71198      5.78855      2.24253         0.420403      0.593248     -0.200597
Ti       9.72382      5.84216     14.74819         0.556036      0.792374     -0.560086
Ti       9.60447      5.75894      6.27472         0.420625      1.238448      0.293735
Ti       9.73424      5.69875     10.68226         0.715913      0.646082     -0.580531
Ti       9.77661      9.79375      2.15892        -0.000455     -0.645809     -0.999438
Ti       9.70753      9.71351     14.76862         0.308391      0.103436      0.966818
Ti       9.80147      9.78397      6.31273        -0.549265     -0.032907      0.420859
Ti       9.82001      9.80755     10.42225        -0.525454     -0.651417     -0.565009
O       1.87338      1.91908      0.42939        -0.078644     -0.159171     -0.874702
O       1.97777      1.93496     12.89315        -0.049454      0.029053      1.066375
O       1.81349     13.54135      0.36233         0.145120      0.576084      0.926412
O       2.03352     13.66025     12.89492        -0.455249     -0.097461     -1.340898
O      13.62266      2.01609      0.45136         0.279673     -0.276851     -0.075459
O      13.50919      1.97269     12.88892         0.692697      0.052719     -0.469989
O      13.64224     13.47889      0.48004        -0.418985      0.479104      0.408691
O      13.46212     13.59521     12.82105         0.339306      0.377342     -1.340107
O       1.73681      1.98687      4.62497         0.198271     -0.162134      0.211521
O       1.86626     13.59722      4.46773         0.247572      0.276420      0.310709
O      13.60743      2.07928      4.70495        -0.098882     -0.139366     -0.857913
O      13.56619     13.63885      4.55335        -0.035529      0.174861     -0.338972
O       1.83510      1.94635      8.75999         0.341371     -0.030354      0.295381
O       2.00000     13.52726      8.71704        -0.148161      0.519117     -0.155164
O      13.54328      1.84792      8.76051         0.789612      0.084939      0.441432
O      13.71553     13.50985      8.70034        -0.161140      0.443899      1.062811
O       1.99425      5.83713      0.38676         0.041807     -0.409040      0.040992
O       1.77221      5.69420     12.93646         0.695385      0.376840     -0.537556
O      13.63675      5.85806      0.40288        -0.206408     -0.301993      0.416103
O      13.73198      5.84944     12.92518        -0.130296     -0.295647     -0.037012
O       1.72349      5.98582      4.50364         0.445658     -0.816759      0.739028
O      13.61343      5.86458      4.58462        -0.060616     -0.211148     -0.248115
O       1.99432      6.18132      8.82633         0.182089     -0.920245      0.123412
O      13.50730      5.83161      8.80714         0.269325      0.164740     -0.421111
O       1.90715      9.75962      0.35150         0.490559      0.063419      0.105714
O       1.84989      9.78790     12.91710         0.422801     -0.058379     -0.248362
O      13.64277      9.64281      0.46425        -0.152285      0.175422      0.107225
O      13.56588      9.78471     12.90695         0.212282     -0.266652     -0.244436
O       1.75530      9.75435      4.48788         0.595696     -0.034025     -0.524002
O      13.63351      9.62115      4.64557         0.007352      0.125560     -0.649514
O       2.04895      9.71400      8.71898        -0.259434     -0.485262     -0.141542
O      13.53638      9.61489      8.86574         0.025497      0.509578     -1.239976
O       5.68107      1.89274      0.40751         0.309110      0.292780     -1.165254
O       5.88453      1.81195     12.95455         0.020644      0.108303     -0.340741
O       5.88233     13.68212      0.34128        -0.370336     -0.094761      0.716773
O       5.79994     13.64894     12.84153        -0.175544      0.026992     -0.207100
O       5.90397      1.97240      4.50576        -0.002520     -0.070565     -0.160376
O       5.80576     13.60325      4.51793        -0.268941      0.265069     -0.697569
O       6.10824      1.92612      8.92942        -0.925254      0.136396     -0.740112
O       5.75832     13.66730      8.69123         0.010080     -0.204843      0.275455
O       5.61358      5.96021      0.45597         0.446321     -0.709266      0.332210
O       5.98856      5.98199     12.89096        -0.858398     -0.648254      0.555895
O       5.74196      5.75123      4.57274         0.137106     -0.017250     -0.212482
O       5.82035      5.48404      8.84486         0.094881      0.697159      0.602685
O       5.83318      9.71283      0.38132        -0.248962      0.089090      0.812852
O       5.86350      9.76002     12.87970        -0.109796     -0.067552     -0.358354
O       5.74437      9.82273      4.57447        -0.209801     -0.140104     -0.121580
O       6.05019      9.58965      8.72540        -0.457841      0.410250      0.552113
O       9.77878      1.94978      0.35905         0.165469      0.133749      0.711976
O       9.70554      1.72140     12.92893         0.338732      0.726806      0.333474
O       9.51578     13.61147      0.36042         0.413983      0.046475     -0.144098
O       9.74859     13.58214     12.89983         0.209868      0.400320     -0.319996
O       9.69609      1.90134      4.57727         0.156028      0.259501      0.075107
O       9.74298     13.72987      4.59508        -0.197819      0.370896      0.800763
O       9.69364      1.94543      8.75657         0.025322     -0.144655      0.603033
O       9.78214     13.65389      8.61451        -0.334502     -0.372421      0.900480
O       9.81244      5.79582      0.41624        -0.227595     -0.296317      0.824672
O       9.79643      5.98099     12.93416        -0.268687     -0.616172      0.959336
O       9.63099      5.91271      4.49351         0.081597     -0.586888     -0.297006
O       9.73100      5.65971      8.89705        -0.008471      0.280614     -0.178648
O       9.86285      9.68579      0.29226        -0.901247      0.337564      2.188190
O       9.80808      9.76881     13.02702         0.058719     -0.098746     -1.295583
O       9.82757      9.89898      4.50012        -0.276670     -0.729163      0.433115
O       9.73167      9.79604      8.61632         0.068547     -0.112137      0.385597
O       3.87982      1.82557      2.54100        -0.531880      0.160911     -0.165805
O       3.87258      1.90996     15.02736        -0.553172     -0.250286     -0.337316
O       3.81932     13.72630      2.42708         0.440313      0.093433      0.074081
O       3.84662     13.59695     14.81426        -0.071178      0.275235      1.012682
O      15.54394      2.00576      2.54400         0.344741     -0.265769     -0.079178
O      15.49727      1.78599     14.98634         1.750673      1.252206      0.019631
O      15.46954     13.57738      2.50884         1.080604      0.369845      0.283815
O      15.50228     13.40870     14.85570         0.313712      0.603150     -0.149887
O       3.84423      1.88358      6.61068         0.567742      0.152382      0.164978
O       3.83685     13.62398      6.63377         0.135134      0.168246     -0.179796
O      15.48245      1.95913      6.84398         0.771217     -0.284836     -0.199217
O       0.04085     13.64742      6.65161        -0.405367      0.352143     -0.129935
O       3.84074      1.85791     10.85405         0.768443      0.245057      0.151700
O       3.89290     13.51335     10.78113        -0.278206      0.444497      0.121930
O       0.06853      1.90580     10.93998        -0.840392     -0.222280      0.041301
O       0.00557     13.68866     10.87720         0.271993     -0.014286      0.014133
O       3.73279      5.82789      2.59255         1.362760     -0.302735      0.248454
O       3.86460      5.81900     14.97826         0.474280      0.305936     -0.576610
O      15.54713      5.88371      2.42768         0.092329     -0.588406      0.111706
O       0.01896      5.84524     15.06899        -0.629005     -0.235075     -0.029571
O       3.87411      5.76829      6.66777        -0.292475     -0.062935      0.183629
O       0.00726      5.89764      6.70524        -0.599350      0.023142      0.384988
O       3.94781      5.88627     10.96660        -0.460248      0.136667      0.094037
O      15.58356      5.88149     10.82487         0.502572     -0.275214      0.091170
O       3.85820      9.70398      2.60284         0.216963      1.035222     -0.711958
O       3.91727      9.81236     14.88476        -0.603031     -0.531363      0.301676
O       0.00979      9.88178      2.35397        -0.410999     -0.617489      0.712781
O      15.50631      9.76053     14.98690         0.627000      0.041308     -0.077662
O       3.79372      9.84657      6.71686         1.480649     -0.531595     -0.446129
O      15.54263      9.62115      6.79357         0.236548     -0.109896     -0.257631
O       3.91889      9.67390     10.76063         0.929450     -0.713882      0.092362
O      15.56594      9.71465     10.90241         0.037305     -0.034307     -0.385745
O       7.76592      2.13496      2.27614         0.469852     -0.249335      0.643769
O       7.87878      1.97177     15.09754        -1.797784      0.392060     -0.493097
O       7.74926     13.59512      2.60964         0.159776     -0.115286     -0.354080
O       7.72750     13.64247     14.84071         0.676440     -0.293257      0.432146
O       7.81447      1.81567      6.61421        -0.044925      0.249562      0.015437
O       7.71786     13.63377      6.59175         0.596984      0.353992      0.276351
O       7.85838      1.96796     10.92105        -0.314568     -0.383106      0.076809
O       7.79391     13.58973     10.82007        -0.044046      0.218187     -0.272535
O       7.73608      5.83652      2.34072        -0.112598     -0.297531      0.388716
O       7.73334      5.81341     15.16919        -0.225462     -0.193035     -0.682783
O       7.80009      5.87179      6.57710        -1.166132     -0.353153      0.402511
O       7.85777      5.51677     11.03598        -0.457108      0.636241     -0.461620
O       7.73067      9.72847      2.66115         0.077199      0.300499     -0.873307
O       7.81531      9.79943     14.93910        -0.810772     -0.048830      0.416769
O       7.77938      9.60634      6.55520        -0.092435      0.778437      0.051940
O       7.96097      9.85008     10.89878        -1.827469     -0.708005     -0.603684
O      11.69661      1.88311      2.51815        -1.206792      0.241114      0.201850
O      11.70788      1.80167     14.94601        -0.193137      0.614279      0.098658
O      11.57353     13.70450      2.51576         0.570002      0.187420     -0.284276
O      11.64443     13.83110     14.98785         0.027638     -0.683875     -0.108900
O      11.70966      2.04595      6.86237        -1.201184      0.044889     -0.745249
O      11.72291     13.52732      6.73423        -0.148782      0.275329     -0.262766
O      11.77364      1.98234     10.84117        -0.862615     -0.540469      0.200069
O      11.68376     13.54411     10.69280         0.346032      0.324425      0.105701
O      11.63432      5.89125      2.61443         0.403694     -0.248248     -0.710716
O      11.71026      5.90267     15.08802        -0.511423     -0.473296     -0.415739
O      11.62137      5.81270      6.67274         0.404755     -0.071263     -0.065117
O      11.70021      5.79532     10.93927        -0.004765     -0.242196     -0.059018
O      11.65647      9.58301      2.38032         0.317690      0.437174      0.770647
O      11.67728      9.52383     15.05923         0.278665      0.542554     -0.323000
O      11.66174      9.74160      6.62767         0.351875     -0.085705      0.188159
O      11.66499      9.82364     10.94983         0.375702     -0.219232     -0.586041
O       1.92650      3.79946      2.62832        -0.149657      0.407875     -0.593994
O       1.95245      3.89284     14.89338        -0.203816     -1.056919      0.585117
O       1.80493     15.58940      2.62784         0.167832      0.104822     -0.560991
O       1.76370     15.53942     14.94137         0.685047      0.198199      0.215551
O      13.54336      3.89064      2.41051        -0.095157      0.264599      0.637413
O      13.70295      3.91600     14.94125        -0.110619     -0.335887      0.172486
O      13.67779      0.03780      2.50466        -0.188073     -1.171479      0.137002
O      13.65228     15.59124     14.96797         0.257927     -0.478839      0.151433
O       1.86284      3.90811      6.76993         0.180217      0.128448     -0.187906
O       1.82722      0.05079      6.61866         0.441141     -1.048649      0.128891
O      13.71463      3.94613      6.70333        -0.377718      0.240286      0.244543
O      13.45830      0.00570      6.61730         0.708441     -0.676567      0.219003
O       2.02561      3.88190     10.81906        -0.063117      0.879391      0.158611
O       2.00724     15.54064     10.78375        -0.208514     -0.018440      0.439335
O      13.76272      3.84993     10.79059        -0.367476      0.193357      0.595278
O      13.66782     15.57898     10.88650        -0.031099     -0.359299     -0.157169
O       1.97158      7.79528      2.40172        -0.530749      0.431723      0.277286
O       1.90325      7.75305     14.99515         0.373281      0.953496     -0.247636
O      13.74218      7.78636      2.60741        -0.418878     -0.184361     -0.305390
O      13.64598      7.77813     14.96753         0.380474     -0.200393      0.076761
O       1.95236      7.79711      6.48194         0.658240      0.254699      0.596814
O      13.58717      7.74695      6.88510        -0.215980     -0.211992     -0.464097
O       1.85864      7.78918     11.01354         0.820208      0.094105     -0.178645
O      13.64139      7.77973     10.83907        -0.080619      0.170938      0.222266
O       1.92109     11.69199      2.50483         0.420229      0.600133     -0.012115
O       1.93863     11.62280     15.03202         0.029924      0.840318     -0.252293
O      13.59871     11.67172      2.61528        -0.446227     -0.505953     -0.082137
O      13.34889     11.71145     14.93202         0.536685     -0.398408     -0.142156
O       1.83690     11.62628      6.51243         0.242617      1.162176      0.238065
O      13.75778     11.66111      6.63687        -0.515668     -0.204237      0.020474
O       1.87080     11.63716     10.75365         0.450003     -0.039345      0.401815
O      13.74862     11.75545     10.92507        -0.500070     -0.733790     -0.410500
O       5.68589      3.86725      2.56683         0.334856      0.733513     -0.301658
O       5.67020      3.84910     14.85149         0.750923      0.528853      0.327070
O       5.94860      0.01509      2.52940        -0.423161     -0.036571      0.019694
O       5.81782     15.54382     14.92797        -0.159436      1.040102      0.384032
O       5.87815      3.78236      6.67384        -0.188161      0.172612     -0.129248
O       5.86077     15.55807      6.64073        -0.384698      0.464384     -0.108233
O       5.78599      3.82812     11.03951         0.012591     -0.584594      0.363640
O       5.78477     15.57676     10.74262         0.105427     -0.754319      0.717114
O       5.69366      7.77822      2.59149         0.540869     -0.245659     -0.370681
O       5.86743      7.81933     14.92064        -0.385142     -0.432651      0.325574
O       5.81086      7.76068      6.72055        -0.546560     -0.372477     -0.288837
O       6.12962      7.65931     10.87941        -1.078740      1.169170     -0.752421
O       5.83612     11.74701      2.47972        -0.673008     -0.639591     -0.229967
O       5.78248     11.69298     15.03974         0.254557      0.013748     -0.153491
O       5.87578     11.67793      6.66282        -0.322727     -0.063082      0.104252
O       5.78730     11.62720     10.76250         0.507135     -0.314720     -0.210876
O       9.81447      3.91804      2.54647        -0.230465     -0.788216     -0.233896
O       9.78475      3.88162     15.08802        -0.090685      0.330048     -0.414773
O       9.58562     15.52291      2.49583         0.278787      1.654848     -0.185692
O       9.67888     15.60282     15.13415        -0.052484      0.066368     -0.414944
O       9.70069      3.87777      6.65367        -0.086791     -0.254526     -0.328537
O       9.85408     15.59593      6.79341        -0.259911      0.500323     -0.579327
O       9.84915      3.79431     10.91075        -0.029320     -0.039951      0.524802
O       9.78947     15.55483     10.80098        -0.144645     -0.152137     -0.193651
O       9.63754      7.84571      2.62811         0.357415     -0.558380     -0.759925
O       9.63204      7.72626     15.13732         0.061521     -0.133732     -0.549963
O       9.68362      7.75172      6.62508         0.647886      0.431347     -0.044461
O       9.69516      7.81841     10.81320         0.321867     -0.273250     -0.044057
O       9.83701     11.68152      2.49007        -0.636836     -0.256883     -0.229451
O       9.82659     11.71996     15.04301        -0.121988     -0.241617     -0.107136
O       9.71846     11.77428      6.52776        -0.398798     -1.187061      0.634380
O       9.76811     11.68792     10.73337         0.053291      0.570062      0.119018
