  # total energy = -7880.14049670 
CRSYTAL
PRIMVEC
    15.6080000000000005    0.0000000000000000    0.0000000000000000
     0.0000000000000000   15.6080000000000005    0.0000000000000000
     0.0000000000000000    0.0000000000000000   16.6239999999999988
PRESSURE
0.059403 -0.358658 -0.335882 0.027562 -0.26255 -0.077784
PRIMCOORD
320 1
Pb       3.98498      4.06567      4.22910        -0.158782     -0.224719     -0.090251
Pb       3.96617      4.02389     16.48665         0.028065     -0.399692      0.723235
Pb       3.90540      0.09321      4.00758        -0.130313     -0.628228      0.524249
Pb       3.84810      0.03685     16.46617         0.394424     -0.445769      1.246752
Pb       0.15939      3.84615      4.20983        -0.621428      0.319998     -0.334831
Pb      15.58301      3.78055      0.00116        -0.233705      0.609114      0.389098
Pb      15.40264      0.04115      4.12045         0.426551     -0.386755     -0.446451
Pb      15.48208      0.01528     16.55853         0.305124     -0.283679      0.756961
Pb       3.79722      3.81394      8.23101        -0.098532      0.401315      0.132860
Pb       3.89532     15.50413      8.05650         0.051750      0.417813      0.577366
Pb      15.54225      3.86497      8.38782        -0.126261      0.197306     -0.119668
Pb      15.57938     15.54070      8.23786        -0.242218      0.123920      0.368384
Pb       3.76656      3.86260     12.56842         0.090925      0.127704     -0.609739
Pb       3.92231     15.53167     12.52203         0.073673      0.209940     -0.830053
Pb       0.00667      4.01416     12.62244        -0.355907     -0.537866     -0.245747
Pb       0.16199     15.55399     12.45275        -0.917213      0.173351      0.118515
Pb       3.87845      7.87396      4.07057        -0.087567      0.043906      0.541531
Pb       3.99721      7.75441     16.60103         0.024883      0.572207     -0.000394
Pb       0.10492      7.79919      4.21147        -0.459227      0.238738     -0.163628
Pb      15.51074      7.75170     16.59914        -0.206913      0.153267     -0.120689
Pb       3.78004      7.72841      8.30102         0.393618     -0.082162     -0.235308
Pb      15.36328      7.67420      8.48010         0.183134     -0.093899     -0.591637
Pb       4.00678      7.79383     12.32197        -0.277525      0.103695      0.605999
Pb      15.46673      7.78959     12.52418         0.019368     -0.049303      0.087710
Pb       3.80100     11.69691      4.01393         0.354777     -0.169252      0.685310
Pb       3.95135     11.63549     16.60534        -0.323220     -0.095551     -0.185545
Pb      15.56898     11.64729      4.10805        -0.099121      0.117879      0.307276
Pb      15.49153     11.73040     16.52418         0.289859      0.390312     -0.154696
Pb       3.86536     11.84305      8.23205        -0.099919     -0.247762     -0.276183
Pb       0.15534     11.64773      8.16124        -0.611794      0.238656      0.909399
Pb       4.02148     11.50884     12.23887        -0.173431      0.160436      0.621683
Pb       0.17299     11.66687     12.43362        -0.410387      0.352206      0.056821
Pb       7.84062      3.70833      4.13184        -0.163763      0.338694      0.282248
Pb       7.99977      4.02442     16.58727        -0.835559     -0.348222      0.277395
Pb       7.85133     15.46475      4.13258        -0.502337     -0.093069      0.379321
Pb       7.83174      0.13664     16.54499        -0.272435     -0.281146     -0.024160
Pb       7.58901      3.79219      8.48122         0.677562      0.505087     -0.633704
Pb       7.74032      0.06643      8.14921         0.006453     -0.892215      0.026064
Pb       7.79918      3.55983     12.57118         0.182049      0.976736     -0.269620
Pb       7.70357     15.40278     12.41951         0.481871      0.378578      0.610990
Pb       7.96525      7.85735      4.23229        -0.774227     -0.288794     -0.229253
Pb       7.63545      7.77307      0.00371         0.652288      0.368998      0.065238
Pb       7.74406      7.80535      8.12108         0.316445     -0.329140      0.796772
Pb       7.78612      7.67142     12.38435         0.152267      0.041245     -0.171714
Pb       7.87370     11.54893      4.16144        -0.049427      0.881330     -0.014324
Pb       7.75640     11.89621     16.54955         0.470852     -0.420533     -0.082713
Pb       7.77312     11.67800      8.13553         0.298044      0.475626      0.711290
Pb       7.84728     11.60634     12.32200        -0.132915     -0.107703      0.671903
Pb      11.75751      3.64650      4.21463        -0.176494      0.677277     -0.255510
Pb      11.68543      4.09824      0.31092        -0.111220      0.207530     -0.353981
Pb      11.38595     15.39624      4.09876         0.966648      0.154582      0.186258
Pb      11.73212     15.57424     16.52809        -0.554067     -0.095649      0.632969
Pb      11.66858      4.14096      8.41096         0.174849     -0.745719     -0.015911
Pb      11.79067      0.26470      8.43801         0.185037     -0.394684     -0.181937
Pb      11.82595      3.78727     12.51925        -0.539318     -0.000823     -0.212322
Pb      11.56240     15.55065     12.39243         0.097388      0.063557      0.092432
Pb      11.56907      7.74454      4.19463         0.526724     -0.100752     -0.215833
Pb      11.70747      7.88329      0.04475        -0.246197     -0.290293     -0.168250
Pb      11.63544      7.79685      8.38834        -0.166056      0.043173     -0.466830
Pb      11.50153      8.02868     12.49791         0.382122     -0.604607     -0.118267
Pb      11.86261     11.31556      4.14232        -0.276353      1.115523      0.254845
Pb      11.64641     11.62028     16.62081        -0.204271      0.910289     -0.341153
Pb      11.81947     11.90758      8.39411        -0.172478     -0.269818      0.241663
Pb      11.85593     11.79950     12.49206        -0.373991      0.336465     -0.344470
Ti       1.97245      1.96916      2.27066        -0.654191     -1.276774     -0.139016
Ti       1.86195      1.87504     14.82244        -0.215804      1.070016     -1.079074
Ti       1.88706     13.58121      2.18869        -0.539587      1.489906      0.917209
Ti       1.96093     13.64913     14.66457        -1.015070     -1.744036      0.439477
Ti      13.62822      1.95425      2.16080         0.028900     -0.329092      0.866357
Ti      13.52549      2.01879     14.76278         0.172031      0.050925     -1.015339
Ti      13.59146     13.61618      2.18567        -0.295835      0.170215     -0.356188
Ti      13.58828     13.76095     14.65729         0.483022     -1.232815     -0.461699
Ti       1.82539      2.03506      6.42051         0.783215     -0.586084     -0.450138
Ti       1.81276     13.75309      6.26973         1.184657     -0.561641     -0.542292
Ti      13.61925      1.96499      6.24785         0.010491     -0.517345      0.583399
Ti      13.63341     13.64705      6.31507        -0.221130      0.365370      0.415344
Ti       1.98952      1.98719     10.53166        -1.431237     -0.036832     -0.864160
Ti       2.03771     13.71661     10.53157        -1.445473     -0.832877     -0.191335
Ti      13.75657      1.86013     10.64774        -0.062294      0.543555      0.723557
Ti      13.65574     13.69109     10.53253         0.685302     -0.661361     -0.643116
Ti       1.89332      5.80004      2.11968        -0.330092      1.110269      1.528407
Ti       1.90436      5.84298     14.75788        -0.231964      0.052271     -0.948697
Ti      13.67859      5.92695      2.24892        -0.671327     -0.497612      0.355355
Ti      13.56434      5.86610     14.79971         0.172639      0.404200     -0.302617
Ti       1.90637      5.94510      6.40623         0.026179     -1.047609     -0.581932
Ti      13.62980      5.80916      6.27252         0.161202      0.798505     -0.318628
Ti       1.89910      5.91268     10.66054        -0.594207     -0.491068     -0.262099
Ti      13.57056      5.78538     10.67599         0.528142     -0.036780     -0.269553
Ti       1.89882      9.72896      2.16332        -0.700799      0.132522      0.589591
Ti       1.89424      9.68074     14.75717         0.361422      1.343010     -0.360933
Ti      13.62812      9.73211      2.08384         0.555277     -0.193168      1.448314
Ti      13.63708      9.87496     14.59320        -0.051473     -0.603659     -0.332504
Ti       1.88239      9.69548      6.42882         0.143275      0.496625     -0.621919
Ti      13.58002      9.79235      6.55353         0.387148     -1.367707     -0.806288
Ti       1.81020      9.70695     10.57382         0.093916      0.044579     -0.765589
Ti      13.56554      9.69690     10.52498         0.258955      0.983900      0.477198
Ti       5.82897      1.93676      2.20267         0.595601      0.266287     -0.315907
Ti       5.75477      1.94453     14.61962         1.447775      0.106638      1.398495
Ti       5.81052     13.62684      2.15743         0.952893      0.270270      0.675632
Ti       5.80784     13.67141     14.59713         1.036762     -0.587447     -0.784726
Ti       5.75910      2.00037      6.34906         0.346778     -1.775727      1.105055
Ti       5.83655     13.58919      6.36178         0.793787      1.346977     -0.326324
Ti       5.76408      1.92357     10.46619        -0.522016     -0.478231      1.013297
Ti       5.91372     13.57413     10.50353        -0.833102      0.293541     -0.413255
Ti       5.78644      5.85312      2.31129         1.219074     -0.246530      0.469594
Ti       5.90672      5.79009     14.61550        -0.039883      0.852358     -0.628202
Ti       5.94221      5.78589      6.34842        -1.043285      1.203902     -0.088173
Ti       5.79260      5.77373     10.50262         1.002691     -0.321130     -0.723228
Ti       5.89378      9.70874      2.31247        -0.298536      0.221716     -0.929440
Ti       5.92312      9.77682     14.67063        -0.418996     -0.720173     -0.969005
Ti       5.77668      9.75045      6.39312        -0.181483     -0.552213     -1.315595
Ti       5.86348      9.64063     10.33221         0.195324      0.099201      1.257188
Ti       9.75605      2.00294      2.20522        -0.132961     -1.257132     -0.099043
Ti       9.67985      1.98316     14.70394         0.288610     -0.119944     -0.270849
Ti       9.68500     13.68434      2.08464         0.150201     -0.696983     -0.209759
Ti       9.73272     13.70127     14.63822        -0.135811     -0.784759     -0.277457
Ti       9.73108      1.91538      6.45311         0.126542      0.109336     -0.323608
Ti       9.83993     13.60962      6.45049        -1.862938      0.137409     -1.192780
Ti       9.65707      1.90270     10.53749         1.002572      0.350253     -0.949678
Ti       9.67793     13.61958     10.50702         0.880867     -0.391526      0.019861
Ti       9.69278      5.80295      2.31569         1.014428      0.625431     -0.920122
Ti       9.76198      5.90176     14.61596        -0.066160     -0.204591     -0.277117
Ti       9.76191      5.74437      6.38748         0.592531     -0.050189     -0.499842
Ti       9.75351      5.79797     10.54862        -0.866965      0.059497      0.051463
Ti       9.68446      9.74658      2.20899         0.484271      0.212271     -1.564646
Ti       9.74741      9.74877     14.64667        -0.743958      0.483149      0.333294
Ti       9.75095      9.73577      6.42783        -0.008713      0.043464      0.190794
Ti       9.68100      9.72378     10.44501         0.454332     -0.079613     -0.963422
O       1.88852      1.83331      0.50324         0.301306      0.490487     -0.331019
O       1.85852      1.85788     13.02457         0.292206      0.208478      0.304377
O       2.04004     13.64452      0.45445         0.081942     -0.261484     -0.906541
O       1.82455     13.65100     12.89227         0.588285      0.276586     -0.181760
O      13.61587      1.69589      0.37674        -0.071664      0.936285      0.095963
O      13.91680      2.09281     12.95997        -1.402488     -0.479771      1.140848
O      13.45382     13.46240      0.37764         0.626418      0.566513      0.167345
O      13.62647     13.66944     12.86478        -0.598127      0.085551      0.209963
O       1.83104      2.06314      4.61221         0.228091     -0.072980     -0.379857
O       1.75204     13.71722      4.51314         0.338348     -0.261933      0.224838
O      13.63726      1.87786      4.47665        -0.050015      0.396223      0.312010
O      13.71583     13.52514      4.55957        -0.344412      0.050476     -0.353632
O       1.91301      2.07007      8.69035         0.120097     -0.286273      1.051362
O       1.86212     13.78097      8.76388         0.501926     -0.564609     -0.189657
O      13.72167      1.93406      8.90453        -0.370878     -0.159245     -1.413647
O      13.52370     13.80873      8.71263        -0.029302     -0.348073      0.072049
O       1.99559      5.80996      0.38030        -0.284300      0.350240     -0.414596
O       1.89215      5.84955     12.92006         0.240065     -0.447151      1.023901
O      13.59398      5.92679      0.44901         0.350371     -0.206765     -0.574511
O      13.63282      5.78555     13.00693        -0.305164      0.012665     -0.255531
O       1.96187      5.88879      4.58979        -0.203846     -0.102109      0.248569
O      13.61636      5.85055      4.46586        -0.168761      0.045267      0.597197
O       1.76590      5.85760      8.87436         0.318083      0.240201     -0.244818
O      13.66341      5.78870      8.86165        -0.101745      0.014811      0.218466
O       1.71632      9.85108      0.43079        -0.015070     -0.094452     -1.045268
O       1.84127      9.84453     12.98678         0.301274     -0.531339     -0.694533
O      13.60058      9.87423      0.33756         0.051820     -0.197470     -0.751995
O      13.63917      9.74328     12.76106        -0.447392      0.327532      0.643517
O       2.04789      9.71346      4.66692        -0.285698     -0.182743     -0.382901
O      13.53687      9.73011      4.76717        -0.634760      0.411270     -0.589505
O       1.68458      9.53523      8.79827         0.655177      0.361693     -0.388010
O      13.70309      9.71215      8.75658        -0.136229     -0.267790     -0.820593
O       5.95642      2.06211      0.44731        -0.547900     -0.378026     -0.176519
O       5.81137      1.91103     12.89596        -0.274369      0.485657     -1.203523
O       5.77674     13.63976      0.40545        -0.046946     -0.159300     -1.293301
O       5.93970     13.48575     12.76557        -0.720869      0.663350      1.363254
O       5.80848      1.79981      4.66744        -0.098614      0.657131     -2.175933
O       6.09423     13.77311      4.65326        -0.498514     -0.772914     -1.085481
O       5.54989      1.93249      8.70998         1.043722      0.186112     -0.030442
O       5.77592     13.51289      8.71821        -0.148119      0.433198      0.058347
O       5.86977      5.79940      0.53107        -0.001838      0.253961     -0.604920
O       5.69456      5.81439     12.81460         0.390243      0.049835      0.810206
O       5.79798      5.89446      4.55477         0.021055     -0.471571      0.817199
O       5.91396      5.80044      8.68612        -0.425601     -0.514052      0.038847
O       5.78074      9.55483      0.51503         0.325200      0.502306     -0.334829
O       5.88123      9.65056     12.84023        -0.202548     -0.089619      0.750745
O       5.86227      9.70650      4.54579        -0.277610      0.199690      0.011266
O       5.97748      9.80295      8.60840        -0.253391     -0.526110     -0.635887
O       9.72060      1.94499      0.41872        -0.286317     -0.024406     -0.339463
O       9.60527      2.06464     12.90959         0.165227     -0.420120     -0.669648
O       9.78359     13.75447      0.26925        -0.958600     -0.230528      0.896271
O       9.70433     13.60331     12.81611        -0.002169     -0.051554      0.494871
O       9.87760      1.97149      4.62657        -0.323963      0.042514      0.479731
O       9.57783     13.70131      4.57568         0.587465     -0.267093      0.787816
O       9.77903      1.83974      8.65193        -0.284314      0.197728      1.711297
O       9.79469     13.53138      8.74830         0.106015      0.287025     -0.745672
O       9.63863      5.73735      0.43995        -0.023245      0.260853      0.628997
O       9.64308      5.76531     12.83430         0.562806      0.285509      0.313289
O       9.93336      5.68234      4.55420        -0.298401      0.555249      0.526509
O       9.84695      5.80264      8.72951        -0.160414     -0.074184      0.298715
O       9.66742      9.63455      0.40484         0.461832      0.412056      0.018360
O       9.68773      9.74727     12.84072         0.313174     -0.288692      0.227999
O       9.71142      9.55263      4.54859         0.515337      0.878068      0.321959
O       9.62703      9.61958      8.63076        -0.008039      0.042529      0.385269
O       3.87224      2.06010      2.60387        -0.490586     -0.193035     -0.305589
O       3.88433      1.95841     14.93354        -0.435811      0.242341      0.339543
O       3.99945     13.63508      2.66062        -1.356780     -0.141877     -0.227738
O       3.89369     13.66560     14.96957         0.094109      0.250111     -0.406698
O      15.50109      1.87333      2.55370         1.117683      0.157123     -0.154653
O      15.56491      2.01933     15.10163         0.178066     -0.591045      0.093804
O      15.55477     13.54396      2.39826         0.000359      0.041705     -0.145305
O      15.55468     13.70573     14.97032        -0.032023      0.112716      0.245515
O       3.85618      1.90937      6.67613        -0.697903      0.466194     -0.227365
O       3.84066     13.68743      6.52810         0.161855     -0.485250      0.372630
O      15.58255      1.92241      6.62074        -0.984762     -0.098612      0.270888
O      15.59543     13.64903      6.68776        -0.597200     -0.094328      0.138265
O       3.82933      1.88372     10.89607         0.290862     -0.118253      0.380578
O       3.86277     13.57324     10.83378         1.071545      0.273612      0.162742
O       0.01274      1.87909     10.83221         0.806198     -0.205352      0.082252
O      15.55659     13.57164     10.78634         0.460288      0.232428      0.134921
O       3.94043      5.98792      2.57655        -1.253112     -0.634099     -0.440640
O       3.84137      5.87968     14.99185         0.377505     -0.332424     -0.058766
O      15.59763      5.88489      2.53433         0.412067      0.183900     -0.365711
O      15.47577      5.72340     14.99593         1.141705      0.449506      0.494486
O       3.81709      5.82774      6.69104         0.461768     -0.281955      0.277958
O      15.54853      5.92452      6.67023        -0.205648     -0.048715      0.037289
O       3.81435      5.97143     10.83193        -0.040267     -0.949284     -0.090283
O      15.54527      5.80557     10.95616        -0.130249      0.289792      0.195529
O       3.76948      9.76604      2.34481         1.277784     -0.148984      0.730432
O       3.80968      9.75723     15.13692         0.255480     -0.352596     -0.323954
O      15.54350      9.74523      2.76574        -0.172157     -0.030172     -1.042125
O      15.46668      9.88303     14.95412         0.792882     -0.452841      0.096846
O       3.89788      9.69434      6.69839         0.000453      0.203712      0.578006
O      15.55792      9.68500      6.52097         0.451491      0.201338      0.813821
O       3.93961      9.63768     10.62638         0.068401      0.051759      0.388858
O      15.54669      9.87089     10.81253         0.013674     -0.460049      0.401584
O       7.79365      1.92675      2.60754         0.171211      0.495606     -0.353054
O       7.73574      1.94697     14.90770         0.142317      0.288049      0.340598
O       7.73516     13.73951      2.39343         0.449332     -0.059698      0.011753
O       7.75349     13.64453     14.91047        -0.695446      0.013915      0.407118
O       7.73623      1.90831      6.68582         0.525337      0.558896      0.197098
O       7.82794     13.71780      6.77836        -0.545567     -0.695862      0.149561
O       7.66252      1.90123     10.77179         1.004124      0.491808     -0.221895
O       7.75968     13.55779     10.79435         0.149445      0.073731     -0.065614
O       7.90400      5.65913      2.77708        -0.878815      0.763068     -0.754083
O       7.82027      5.92181     14.85160        -1.053965     -0.454742      0.434448
O       7.81833      5.79053      6.70868        -0.419430     -0.071980     -0.441084
O       7.75676      5.91041     10.72505         0.193230     -0.665195      0.204251
O       7.82892      9.67711      2.48548        -0.723875      0.139924      0.576953
O       7.74484      9.74415     15.00232         0.077764      0.040948      0.071097
O       7.81548      9.89405      6.49642        -0.748037     -1.209687      0.391200
O       7.84899      9.51504     10.74805        -1.556242      0.147626      0.165254
O      11.70539      1.92504      2.50388        -0.248318     -0.061510     -0.147747
O      11.58828      1.90775     14.91040         0.973376     -0.135713     -0.094009
O      11.59049     13.72909      2.31656         0.215354     -0.555592      0.810239
O      11.60065     13.55630     15.04291         1.084961      0.889838     -0.797320
O      11.77489      1.89166      6.64174        -0.776188      0.199181      0.188724
O      11.67499     13.57366      6.54878         0.706580     -0.108329      0.266594
O      11.63900      1.83432     10.89082        -0.538739     -0.119064      0.012302
O      11.56909     13.76993     10.88377         0.814339     -0.623720     -0.099313
O      11.67275      5.83903      2.26772         0.316715     -0.058551      0.813045
O      11.65885      5.99011     15.06512        -0.291396     -0.450922      0.057838
O      11.71887      5.74008      6.72054        -0.077838      0.275665     -0.079114
O      11.68891      5.68572     10.82495         0.058730      0.183581      0.298615
O      11.71377      9.67911      2.55849        -0.205053      0.337494     -0.403009
O      11.66744      9.71175     14.89747        -0.213206      0.201070      0.107621
O      11.57233      9.79127      6.84010         1.272193      0.100734     -0.308007
O      11.62602      9.56411     10.66792         0.619670      0.764923      0.379652
O       1.79688      3.95513      2.44725         0.589844     -0.662494      0.178928
O       1.86509      3.91147     15.15860         0.602141     -0.312617     -0.622436
O       1.92747     15.54591      2.53448         0.278285      0.936253      0.030307
O       1.93503      0.00131     15.11105        -0.086387     -0.303518     -0.502070
O      13.71013      3.86457      2.46257        -0.542490     -0.188301     -0.422369
O      13.49249      3.86901     15.18949         0.100966      0.293844     -0.165583
O      13.59523     15.47668      2.50019         0.314230      0.388717     -0.007616
O      13.62935      0.02898     15.02053        -0.333473     -0.265628     -0.374870
O       1.74012      3.92311      6.69298         0.699089      0.162097      0.090360
O       1.92315      0.00583      6.71224        -0.340028      0.221199     -0.374135
O      13.60174      3.89586      6.67698         0.573119     -0.399898     -0.334816
O      13.64342     15.55421      6.58878         0.229372      0.515032      0.083259
O       1.84086      3.84671     10.93762         0.810589      0.181287      0.073742
O       1.92460     15.55222     10.95069         0.501876      0.716449     -0.344835
O      13.64813      3.81819     10.99354        -0.022616      0.742343     -0.264541
O      13.65348     15.55320     10.83660        -0.217523      0.783433      0.583443
O       1.82122      7.86107      2.49100         0.413037     -0.974393     -0.015284
O       1.81042      7.79909     14.98351        -0.214459     -0.541506      0.287512
O      13.61504      7.84641      2.36763         0.234008     -0.414846      0.322518
O      13.66948      7.87706     15.04673         0.027062     -0.507334     -0.114610
O       2.03914      7.77557      6.68917        -0.602432      0.413198      0.139979
O      13.54511      7.79243      6.65692        -0.101600     -0.517288      0.663616
O       1.80451      7.80454     11.03517         0.180303      0.196232     -0.304840
O      13.62474      7.80579     10.87437         0.306050     -0.647018     -0.083842
O       1.91076     11.69972      2.63423         0.137821     -0.159531     -0.366575
O       1.83746     11.72555     14.90630         0.373914      0.718142      0.642156
O      13.60557     11.60048      2.49867        -0.268104      0.625310      0.415257
O      13.55028     11.78903     14.82789        -0.052032     -0.921461      0.242012
O       1.96188     11.69409      6.66567        -0.083899     -0.004200      0.225104
O      13.68431     11.69594      6.78402        -0.255921      0.418856      0.026200
O       2.06502     11.61368     10.84102        -0.502650      0.354705     -0.184286
O      13.52373     11.76945     10.66425        -0.720427     -0.868378      0.598152
O       5.80645      3.90993      2.64601         0.020520      0.043345      0.172185
O       5.88705      3.94084     15.00877        -0.501614     -0.085876     -0.468628
O       5.80263      0.04308      2.42222        -0.362886     -0.022902      0.173854
O       5.88653      0.03201     14.85818        -0.663528     -0.785928      0.219476
O       5.72195      3.88232      6.60961         0.433754      0.518227      0.146719
O       5.85370     15.56585      6.63227        -0.396877      0.266346      0.837800
O       5.73705      3.82005     10.77859        -0.101316      0.177261      0.033114
O       5.92011     15.54965     10.98578        -1.252945     -0.142559     -0.955688
O       6.00129      7.79636      2.59218        -0.412396     -0.615362     -0.037474
O       5.84025      7.75719     15.10297        -0.336027     -0.153295     -0.574738
O       5.85106      7.78240      6.60691         0.187145     -0.208073      0.385447
O       5.76483      7.63049     10.67680         0.262762      2.167189      0.309333
O       5.87803     11.65647      2.43131        -0.010448     -0.023591      0.378246
O       5.82024     11.66197     14.84524        -0.277525      0.475610      0.806033
O       5.79921     11.67344      6.62405        -0.145765      0.178129      0.103156
O       5.94015     11.62531     10.74469        -0.466889     -0.812248     -0.054111
O       9.85125      3.84346      2.52551        -0.293986      0.123308      0.000931
O       9.69393      3.90742     15.00048         0.178684      0.347321     -0.116590
O       9.69501      0.00798      2.55267        -0.016105      0.184099     -0.463910
O       9.65124     15.59412     14.83640         0.144862      0.543332      0.455872
O       9.68630      3.88488      6.78767         0.232182     -0.853053     -0.154447
O       9.70415     15.55140      6.66246         0.386067      0.831818      0.198064
O       9.73532      3.83060     10.86178        -0.540139     -0.670373     -0.505433
O       9.55529     15.50314     10.88827         0.354595      1.524086     -0.299957
O       9.80941      7.86119      2.46804        -0.518663     -1.842450      0.592208
O       9.64571      7.82040     14.83299         0.395409     -0.040426      0.257230
O       9.83182      7.69403      6.64482        -0.569601      0.343927     -0.121797
O       9.83974      7.70954     10.80043        -0.289991     -0.029676      0.396760
O       9.56800     11.72427      2.38310         0.558866     -0.166788      0.157148
O       9.71145     11.73954     14.92317        -0.275131     -1.082513      0.410429
O       9.64050     11.64214      6.71021         0.734895      0.691462     -0.578232
O       9.66739     11.59066     10.81888         0.356016      0.426967     -0.384321
