  # total energy = -7893.06347308 
CRSYTAL
PRIMVEC
    15.6080000000000005    0.0000000000000000    0.0000000000000000
     0.0000000000000000   15.6080000000000005    0.0000000000000000
     0.0000000000000000    0.0000000000000000   16.6239999999999988
PRESSURE
-1.80172 -1.78247 -0.533061 -0.0513 -0.030328 0.083539
PRIMCOORD
320 1
Pb       3.88598      3.88476      4.12792        -0.081459      0.099010      0.018301
Pb       3.88795      3.88869     16.60223         0.002046      0.005441     -0.168092
Pb       3.88191     15.58879      4.12465         0.067745     -0.067719      0.051578
Pb       3.87955     15.58871     16.59695        -0.056802     -0.092919      0.033816
Pb      15.59026      3.88054      4.12499         0.124498      0.064030      0.124367
Pb      15.58573      3.88126     16.59859        -0.054663     -0.013363      0.001997
Pb      15.58530     15.58854      4.12118        -0.018760      0.073850      0.007497
Pb      15.58650     15.58721     16.59822        -0.046648     -0.054689     -0.071815
Pb       3.87838      3.88263      8.28644        -0.139397     -0.092570      0.046614
Pb       3.88353     15.59122      8.28773        -0.127594     -0.029365     -0.105680
Pb      15.58723      3.88116      8.28393         0.103107     -0.019886      0.003534
Pb      15.59340     15.58881      8.28220         0.157735     -0.056912     -0.047796
Pb       3.88331      3.88387     12.43743         0.032781      0.017231     -0.083194
Pb       3.88032     15.58460     12.43407         0.043968     -0.097630     -0.054134
Pb      15.58665      3.87928     12.44040         0.122884     -0.236831     -0.067071
Pb      15.58580     15.59627     12.44323         0.010020      0.036378     -0.153258
Pb       3.88140      7.78618      4.13345        -0.190932     -0.170944     -0.147228
Pb       3.88002      7.78341     16.60000         0.012847     -0.052332     -0.140623
Pb      15.59483      7.78630      4.13007         0.011416     -0.003511     -0.193975
Pb      15.59076      7.78382     16.59849        -0.112692      0.068446      0.096627
Pb       3.88942      7.78232      8.27720        -0.059623      0.006611     -0.086471
Pb      15.58381      7.78514      8.29084         0.118305     -0.132273     -0.212996
Pb       3.88274      7.78667     12.44075         0.085381     -0.029400     -0.010257
Pb      15.58995      7.78622     12.44285        -0.021312      0.109926     -0.033059
Pb       3.88086     11.68517      4.12624         0.039143      0.078577      0.000808
Pb       3.88413     11.68297     16.59275        -0.038713     -0.022772     -0.099388
Pb      15.58782     11.68514      4.12663         0.076376     -0.140741     -0.018140
Pb      15.58781     11.69054     16.59470        -0.011806     -0.086704     -0.010325
Pb       3.88103     11.68547      8.27998        -0.225115     -0.021431     -0.072543
Pb      15.58758     11.68384      8.28607         0.074319      0.083684      0.137289
Pb       3.88752     11.68597     12.43661         0.053065      0.059401     -0.112531
Pb      15.59400     11.68196     12.43525         0.025361     -0.031308     -0.144711
Pb       7.78713      3.87933      4.12935         0.001770      0.015127     -0.053719
Pb       7.78785      3.88588     16.60225        -0.033149      0.055752     -0.139458
Pb       7.78613     15.58422      4.12291         0.009246     -0.064893     -0.052341
Pb       7.78838     15.59495     16.59979         0.024137     -0.067684     -0.087211
Pb       7.77847      3.88556      8.28509         0.017118      0.042143      0.027541
Pb       7.78615     15.58652      8.28759        -0.151417      0.005042     -0.069397
Pb       7.78238      3.88047     12.43911        -0.153041     -0.048375     -0.077202
Pb       7.78221     15.58768     12.44163        -0.163741     -0.024295     -0.011552
Pb       7.78252      7.78617      4.12877         0.017774     -0.050604     -0.031207
Pb       7.78941      7.79121     16.59838        -0.098226     -0.096621     -0.191578
Pb       7.78558      7.78418      8.28410        -0.000407     -0.015423     -0.013416
Pb       7.79039      7.77869     12.43293        -0.101570     -0.041331     -0.028802
Pb       7.79169     11.68584      4.13371        -0.175260      0.021145     -0.255143
Pb       7.78283     11.68630     16.60006        -0.022965     -0.097654     -0.034454
Pb       7.77947     11.68910      8.27918         0.029355     -0.018452     -0.108204
Pb       7.78238     11.68001     12.43777        -0.123829     -0.057642      0.078248
Pb      11.68810      3.88523      4.13041        -0.087963     -0.033635      0.014026
Pb      11.69025      3.88955     16.60123        -0.128932     -0.087281     -0.232808
Pb      11.67923     15.58611      4.12665        -0.112933     -0.003887     -0.126637
Pb      11.68286     15.58745     16.60092         0.004454      0.001085     -0.108843
Pb      11.69205      3.88595      8.28486        -0.041388      0.155983     -0.089530
Pb      11.68676     15.59380      8.28188         0.047210     -0.039915      0.065701
Pb      11.69330      3.88103     12.44291        -0.165198     -0.168810     -0.104899
Pb      11.69372     15.58671     12.43951         0.034262      0.046411     -0.123935
Pb      11.68590      7.77319      4.12373         0.074864      0.059793     -0.049566
Pb      11.67713      7.78440     16.59735         0.066323      0.000403     -0.005060
Pb      11.68324      7.79034      8.28095         0.024842      0.084208     -0.184595
Pb      11.68208      7.78411     12.44435        -0.012336      0.119466     -0.030356
Pb      11.68176     11.67760      4.13214        -0.022843     -0.065076     -0.285449
Pb      11.69103     11.69021     16.59537         0.020637     -0.085545     -0.072843
Pb      11.69792     11.69326      8.28671         0.016024     -0.126936     -0.067942
Pb      11.68471     11.69093     12.44036         0.031386     -0.043468     -0.247109
Ti       1.92750      1.93667      2.21511        -0.015667     -0.020831      0.093690
Ti       1.92386      1.93974     14.69357         0.088901     -0.282546     -0.548184
Ti       1.91294     13.64351      2.21915         0.412019     -0.228270     -0.270427
Ti       1.91414     13.63331     14.69002         0.108353     -0.000980      0.523645
Ti      13.63180      1.92994      2.22193        -0.086786     -0.215317      0.162597
Ti      13.64212      1.92378     14.67699        -0.327985     -0.172836      0.033224
Ti      13.64433     13.63032      2.21236        -0.358787     -0.016565      0.109934
Ti      13.62755     13.62397     14.67732         0.087198      0.153332      0.447709
Ti       1.92327      1.91219      6.37161         0.035653      0.178808      0.040288
Ti       1.93400     13.63374      6.37828        -0.039560     -0.103322      0.219636
Ti      13.61563      1.93574      6.38040         0.403701     -0.075118     -0.098303
Ti      13.62192     13.63972      6.37329         0.358903     -0.077994      0.174978
Ti       1.94014      1.90845     10.53623        -0.243308      0.260943     -0.349530
Ti       1.91611     13.62869     10.53572         0.202942     -0.028678     -0.407636
Ti      13.62113      1.93168     10.51389         0.192635     -0.262776      0.396872
Ti      13.63568     13.63823     10.53452        -0.017675     -0.071733     -0.027807
Ti       1.91820      5.83227      2.20660         0.056826      0.122244      0.510667
Ti       1.92494      5.82966     14.67885         0.235426      0.156147     -0.099036
Ti      13.61903      5.80934      2.23083         0.137243      0.484039      0.136201
Ti      13.63818      5.82863     14.68224        -0.056764      0.079440      0.640250
Ti       1.92974      5.82446      6.38745        -0.183120      0.012093     -0.049624
Ti      13.63765      5.82990      6.39107         0.061514      0.156604     -0.076019
Ti       1.90035      5.84417     10.53592         0.463702     -0.385669     -0.384805
Ti      13.61868      5.83136     10.55525         0.118182      0.053957     -0.786232
Ti       1.93787      9.73733      2.21632        -0.286703     -0.180380      0.097931
Ti       1.91549      9.73116     14.68999         0.124912     -0.041405      0.330881
Ti      13.62865      9.73835      2.20602         0.142077     -0.361440     -0.517077
Ti      13.63562      9.73587     14.69229        -0.055452     -0.188417      0.510395
Ti       1.92381      9.72972      6.37597         0.061179     -0.169586      0.041564
Ti      13.64754      9.72669      6.37416        -0.309777     -0.106579      0.144614
Ti       1.92201      9.72555     10.53200         0.147794      0.219640     -0.394560
Ti      13.63484      9.73196     10.51457        -0.059266      0.193427      0.139623
Ti       5.83104      1.93013      2.22155        -0.043117     -0.079508     -0.170934
Ti       5.82631      1.91576     14.70275        -0.147020      0.107341     -0.551562
Ti       5.82999     13.63444      2.21608        -0.144858     -0.204282      0.453090
Ti       5.83185     13.63110     14.68656        -0.183968     -0.049657     -0.558978
Ti       5.82798      1.93627      6.37323        -0.135661     -0.399585      0.304949
Ti       5.83793     13.63332      6.38546        -0.311813      0.230598     -1.015146
Ti       5.83254      1.91597     10.52431        -0.175539      0.134826      0.064880
Ti       5.83567     13.62939     10.50307        -0.344639      0.060890      1.083899
Ti       5.81507      5.83531      2.21484        -0.038898     -0.115456      0.066933
Ti       5.83340      5.81903     14.67872        -0.211502      0.284901      0.424017
Ti       5.83223      5.81527      6.37954        -0.251560      0.107842     -0.519411
Ti       5.81452      5.83410     10.52053        -0.017037     -0.139259      0.133497
Ti       5.82536      9.72051      2.20296         0.013046      0.177983      0.477135
Ti       5.82795      9.74070     14.68074        -0.116144     -0.369014     -0.137364
Ti       5.83167      9.73388      6.36537        -0.086346     -0.040815     -0.067734
Ti       5.83853      9.73898     10.52780        -0.290538     -0.190407      0.269171
Ti       9.73813      1.93597      2.21850        -0.085451     -0.259465      0.344666
Ti       9.72293      1.91837     14.68490         0.329138      0.015658      0.084129
Ti       9.72928     13.62574      2.21215         0.000539      0.122579      0.500691
Ti       9.72581     13.62569     14.68186         0.099266      0.075029      0.545247
Ti       9.72679      1.91927      6.39003        -0.185154      0.284864     -0.773495
Ti       9.72705     13.63149      6.36563        -0.098456     -0.135591     -0.181589
Ti       9.72128      1.92604     10.52994         0.088554      0.013741      0.955418
Ti       9.71184     13.63845     10.53658         0.327552     -0.145667     -0.009502
Ti       9.72014      5.82191      2.22329        -0.009275      0.072661     -0.390626
Ti       9.73428      5.83290     14.68598        -0.104709     -0.065888      0.166539
Ti       9.72395      5.84138      6.37273         0.274419     -0.085902     -0.229712
Ti       9.73531      5.84101     10.52930        -0.389839     -0.251513      0.027152
Ti       9.72154      9.71947      2.21876         0.138115      0.042815      0.202530
Ti       9.72950      9.73654     14.68032        -0.049633     -0.143753     -0.114614
Ti       9.72383      9.73521      6.38349         0.269501     -0.236842      0.050149
Ti       9.72054      9.71974     10.54160         0.161330      0.323762      0.064383
O       1.92587      1.95311      0.43666         0.008011     -0.060039     -0.167815
O       1.91737      1.91375     12.88882         0.023674      0.096009      0.623613
O       1.94655     13.64754      0.42533        -0.087932     -0.045009      0.387308
O       1.93681     13.64417     12.93513        -0.042685     -0.047206     -0.594976
O      13.63049      1.92636      0.45030         0.041701      0.003988     -0.006935
O      13.62262      1.92491     12.90219         0.048899      0.052643     -0.110097
O      13.63594     13.65292      0.44087         0.061511     -0.077541      0.001911
O      13.65480     13.64391     12.92274        -0.087332     -0.111471     -0.517916
O       1.95213      1.94038      4.59370        -0.114386     -0.095607     -0.030221
O       1.90509     13.62965      4.60312         0.080634      0.000743     -0.229110
O      13.63673      1.95988      4.59991        -0.053671     -0.054417      0.169863
O      13.65576     13.65612      4.59754        -0.064325     -0.153086      0.097461
O       1.94548      1.92758      8.73613        -0.030493      0.009387      0.292894
O       1.93600     13.63314      8.75100         0.040804      0.053588      0.167107
O      13.65114      1.94176      8.75137        -0.088810     -0.064265     -0.433325
O      13.63368     13.62587      8.76212        -0.049442      0.136672     -0.277815
O       1.92782      5.82690      0.44548        -0.030828     -0.088871     -0.416787
O       1.94754      5.84315     12.89851        -0.116598     -0.007208     -0.040006
O      13.65608      5.83513      0.45837        -0.045627     -0.138458     -0.108313
O      13.63623      5.84898     12.92471        -0.022668     -0.070864     -0.674263
O       1.94043      5.85243      4.61199        -0.016224     -0.129227     -0.163663
O      13.63463      5.83624      4.60557        -0.042312     -0.031530     -0.056149
O       1.90786      5.85139      8.73587         0.018851     -0.088187      0.550432
O      13.63643      5.83110      8.74831        -0.032098      0.000987      0.813466
O       1.95521      9.72590      0.44634        -0.097580      0.060274     -0.301613
O       1.94724      9.75839     12.92253        -0.132221     -0.080983     -0.322470
O      13.68358      9.74409      0.40604        -0.261429     -0.009251      0.426298
O      13.65949      9.74545     12.92750        -0.066536     -0.006346     -0.408584
O       1.93753      9.71914      4.59718        -0.085560      0.074731      0.044865
O      13.62020      9.71954      4.60451         0.095424      0.136940     -0.057487
O       1.91885      9.74571      8.74226         0.066035     -0.156458      0.273180
O      13.65103      9.73635      8.74821        -0.080205     -0.019827     -0.234415
O       5.81374      1.91808      0.43085         0.163015      0.032663      0.270121
O       5.83290      1.93575     12.89937         0.058748     -0.057759      0.534752
O       5.81296     13.63694      0.44493         0.123107     -0.043317     -0.311851
O       5.83738     13.65380     12.88884         0.047251     -0.076232      0.502001
O       5.84811      1.91933      4.61243        -0.037266      0.074142     -0.462414
O       5.84939     13.62932      4.56967        -0.032456     -0.006603      0.664633
O       5.83450      1.92630      8.74344         0.012321     -0.005678      0.002754
O       5.85180     13.64411      8.76323         0.025919     -0.060008     -0.990166
O       5.81395      5.83943      0.43977         0.054313     -0.076018      0.053649
O       5.81317      5.83163     12.91868         0.107374     -0.010778     -0.397737
O       5.82054      5.82079      4.57316         0.111121      0.052118      0.703720
O       5.83122      5.80714      8.74643         0.058003      0.067541     -0.325736
O       5.84927      9.74729      0.44582        -0.095091     -0.006850     -0.373435
O       5.82972      9.74932     12.89704        -0.010533     -0.064633      0.069973
O       5.86040      9.72369      4.59144        -0.143928     -0.011959      0.142465
O       5.82762      9.74219      8.75974         0.143866      0.011341     -0.322095
O       9.73965      1.89177      0.45187        -0.048604      0.134990     -0.381672
O       9.74159      1.92344     12.90571        -0.014137      0.046894      0.128686
O       9.74096     13.64342      0.45628        -0.032903     -0.034673     -0.566057
O       9.73859     13.64256     12.92962         0.023052     -0.043333     -0.676363
O       9.74172      1.94930      4.58610        -0.000095     -0.011958      0.824060
O       9.73085     13.63661      4.57957         0.030761     -0.022653      0.513025
O       9.75167      1.92485      8.79120        -0.110885     -0.058371     -1.051103
O       9.72980     13.65830      8.76021        -0.043923     -0.062602     -0.077202
O       9.74087      5.83536      0.42604        -0.019573     -0.026286      0.292530
O       9.76206      5.83816     12.90529        -0.107779     -0.042462     -0.001650
O       9.71066      5.83076      4.58290         0.141342     -0.018449      0.187496
O       9.73574      5.83764      8.75367        -0.022006      0.085033      0.125283
O       9.74838      9.73549      0.45044        -0.105224      0.051069     -0.239793
O       9.71796      9.72252     12.89316         0.116556      0.059250      0.260077
O       9.72826      9.72389      4.61200         0.035722      0.107990     -0.279434
O       9.73575      9.73616      8.76789        -0.133734     -0.122887     -0.080828
O       3.89197      1.94947      2.55054         0.019026     -0.139381     -0.040582
O       3.89940      1.92341     15.02172        -0.399969      0.077013      0.007071
O       3.87677     13.63406      2.56522        -0.177316     -0.045880     -0.056463
O       3.91085     13.61832     14.99011        -0.221334     -0.038822      0.157989
O      15.57753      1.91103      2.55432         0.119891      0.168424     -0.043970
O      15.58603      1.93191     15.00955         0.235106     -0.031047      0.071475
O      15.58741     13.62768      2.56463        -0.041410      0.025350     -0.141059
O      15.57482     13.66038     15.01190         0.121700     -0.192600      0.100468
O       3.89535      1.92127      6.69400        -0.123446      0.061836      0.089406
O       3.88747     13.64540      6.70025        -0.026739     -0.077385      0.097175
O      15.59115      1.89523      6.70430        -0.210023      0.252232     -0.021682
O       0.01608     13.63754      6.73811        -0.661604     -0.040027     -0.135264
O       3.86712      1.93737     10.85261         0.274728     -0.033534      0.020806
O       3.87393     13.64115     10.83792         0.175450     -0.037585      0.113165
O      15.58418      1.94511     10.86862        -0.056941      0.006581     -0.009300
O      15.60681     13.62870     10.84727        -0.163108      0.133096      0.180438
O       3.86246      5.82683      2.56551         0.255856     -0.003624     -0.126718
O       3.88257      5.86795     15.01627        -0.195490     -0.206881      0.075060
O      15.58936      5.85557      2.56347        -0.065327     -0.193401     -0.024558
O      15.60765      5.84705     15.00546        -0.356161     -0.185220      0.041693
O       3.88153      5.83291      6.70876         0.313115     -0.067486      0.057722
O      15.58271      5.81962      6.69064        -0.126550     -0.032684      0.158838
O       3.89432      5.84938     10.84908        -0.410748     -0.055253      0.005430
O      15.57404      5.83921     10.85815        -0.066350     -0.012056      0.097226
O       3.86088      9.73587      2.55470         0.494001     -0.072462     -0.000299
O       3.87641      9.72455     15.01749         0.060535      0.135079      0.051362
O      15.58754      9.73252      2.53796        -0.015644      0.024439      0.129680
O      15.58235      9.74380     15.03172         0.141476     -0.111415     -0.084804
O       3.86110      9.73696      6.70607         0.408965     -0.074255     -0.006988
O      15.59506      9.73236      6.71852        -0.233974     -0.010654     -0.120620
O       3.88088      9.72692     10.84667         0.015688      0.066391      0.072982
O      15.59844      9.72418     10.84392        -0.169342      0.075441      0.175832
O       7.79709      1.92782      2.57070        -0.479012      0.017075     -0.146538
O       7.79581      1.92347     15.02751        -0.186690      0.002982     -0.001952
O       7.78893     13.64978      2.54185        -0.157254     -0.072033     -0.076266
O       7.79864     13.62565     15.00109        -0.237055      0.164668      0.178385
O       7.77367      1.93233      6.69726         0.318227      0.030457      0.173599
O       7.77372     13.65915      6.70305         0.443499     -0.254777      0.106113
O       7.77004      1.92296     10.86861         0.059471     -0.034203     -0.030422
O       7.78445     13.62192     10.86159         0.062048      0.116592     -0.022957
O       7.81117      5.83933      2.55748        -0.462103     -0.041404     -0.095298
O       7.77785      5.84706     15.03018         0.094754     -0.110139     -0.095182
O       7.80420      5.82222      6.70826        -0.477772      0.133303      0.048495
O       7.77242      5.84063     10.86477         0.310317     -0.098212      0.027850
O       7.77375      9.73473      2.54638         0.060952     -0.035324     -0.002534
O       7.77926      9.73886     15.02260         0.180874     -0.009780      0.024270
O       7.79663      9.71734      6.68096        -0.549936      0.128177      0.257586
O       7.77877      9.73948     10.88552        -0.126054     -0.093680     -0.148761
O      11.66516      1.94474      2.57484         0.510394     -0.032225     -0.087187
O      11.69246      1.94778     15.02596        -0.145444     -0.052448     -0.019037
O      11.67800     13.66553      2.54125         0.381539     -0.190448      0.071103
O      11.68943     13.64014     15.01956         0.031728     -0.075416      0.023042
O      11.68362      1.92603      6.70713        -0.103509     -0.035570      0.078033
O      11.67960     13.63804      6.71082        -0.080015      0.068193     -0.093388
O      11.70401      1.92453     10.83949        -0.241284     -0.043164      0.125487
O      11.69680     13.64644     10.85472        -0.380540     -0.111523      0.150462
O      11.68148      5.83988      2.55002         0.098337     -0.144481      0.032369
O      11.69678      5.82460     15.01542        -0.038205     -0.037716      0.014089
O      11.69404      5.84918      6.71936        -0.276320     -0.065549     -0.003650
O      11.66368      5.86575     10.86784         0.267278     -0.122969      0.009957
O      11.68062      9.75974      2.55003        -0.047774     -0.024244      0.019065
O      11.67383      9.72280     15.03168        -0.036911      0.103202     -0.109039
O      11.67222      9.72330      6.70572         0.349122      0.056648      0.105497
O      11.69879      9.74401     10.85810        -0.149354     -0.019335      0.084767
O       1.95789      3.86327      2.56437        -0.273108      0.202603     -0.085309
O       1.95033      3.87213     14.99859        -0.095028      0.019563      0.049596
O       1.94233     15.60068      2.53164        -0.069655     -0.269955      0.042793
O       1.93774     15.56470     15.00775         0.008841      0.441477      0.142930
O      13.65896      3.87823      2.55733        -0.118089     -0.027035     -0.068609
O      13.66398      3.85746     15.02362        -0.043429      0.457725     -0.003755
O      13.66357     15.58672      2.56591        -0.186500     -0.053217     -0.069660
O      13.65693     15.58773     14.99709        -0.118223     -0.010101      0.144119
O       1.92524      3.87739      6.69725         0.031890     -0.234897      0.129331
O       1.93272     15.58076      6.69953         0.085314      0.043510      0.044140
O      13.62341      3.89953      6.72247         0.030633     -0.550445     -0.009904
O      13.65434     15.58814      6.70431        -0.198077     -0.091517      0.027792
O       1.95799      3.89475     10.87661        -0.236085      0.125279     -0.056718
O       1.94687      0.00154     10.85073        -0.131549     -0.363049      0.057885
O      13.62012      3.87348     10.86171        -0.010427      0.384831      0.062088
O      13.64072     15.56490     10.86972         0.042164      0.410263     -0.017659
O       1.94475      7.78139      2.53979        -0.057993     -0.139602      0.040390
O       1.91109      7.77568     15.01167         0.058912      0.088814      0.015913
O      13.62338      7.81124      2.52754        -0.018346     -0.450896      0.127199
O      13.61221      7.78131     15.02202         0.187532     -0.243155     -0.041428
O       1.91498      7.74340      6.68835         0.062824      0.676119      0.192397
O      13.63892      7.77521      6.70177         0.034739      0.246682      0.128243
O       1.92295      7.79405     10.87419        -0.021564     -0.217494     -0.002024
O      13.63061      7.80924     10.84598         0.045779     -0.510004      0.139676
O       1.93083     11.67579      2.54132        -0.058787      0.323720      0.046741
O       1.92797     11.68147     15.02289        -0.023911      0.010817      0.060383
O      13.64827     11.65416      2.53382        -0.083808      0.744090      0.122263
O      13.65599     11.66245     15.01689        -0.170715      0.434088      0.016562
O       1.94264     11.67297      6.73031        -0.021101      0.015879     -0.160779
O      13.63735     11.68792      6.72998        -0.020135      0.048296     -0.205052
O       1.93800     11.69342     10.85091        -0.023114     -0.212013      0.137722
O      13.65769     11.71030     10.84004        -0.067235     -0.493114      0.224497
O       5.83283      3.89341      2.53594         0.108314     -0.348713     -0.005110
O       5.82296      3.89554     15.02314         0.096611     -0.315102      0.050516
O       5.81738     15.57023      2.55672         0.089730      0.343137     -0.084217
O       5.79461     15.59583     15.01721         0.370387     -0.219697      0.028755
O       5.84327      3.88747      6.70222        -0.007688     -0.019067      0.009006
O       5.83637     15.56004      6.68616         0.032995      0.401043      0.198853
O       5.83152      3.87152     10.86480         0.025250      0.008433      0.001076
O       5.82091     15.57939     10.86086         0.108806      0.056684     -0.069969
O       5.84253      7.76104      2.54452        -0.097330      0.274107     -0.018370
O       5.81782      7.79157     15.04342         0.159736      0.048941     -0.098940
O       5.81780      7.79191      6.72314         0.147676     -0.156555     -0.068466
O       5.81670      7.76171     10.85098         0.181896      0.360183      0.012430
O       5.82505     11.66678      2.56190         0.032259      0.114147     -0.098746
O       5.87017     11.67327     15.00268        -0.155104      0.188159      0.109755
O       5.82720     11.70477      6.68169         0.124459     -0.535581      0.200013
O       5.84394     11.68552     10.85466        -0.041755     -0.062715     -0.041983
O       9.72589      3.88187      2.52805         0.067792      0.045545      0.044667
O       9.73998      3.89333     15.04312        -0.083673     -0.236803     -0.104598
O       9.74735     15.60250      2.55739        -0.051931     -0.237686      0.039501
O       9.75364     15.58330     15.02999        -0.104044      0.056513     -0.039427
O       9.74157      3.89982      6.72849         0.028639     -0.414772     -0.019176
O       9.70665     15.59233      6.70568         0.198801     -0.125918      0.002628
O       9.73298      3.85256     10.84817         0.034926      0.563044      0.117381
O       9.73371     15.59167     10.86413        -0.046630     -0.289676      0.066785
O       9.74630      7.78894      2.52817        -0.037820     -0.052635      0.121461
O       9.71884      7.78005     15.02810         0.121874      0.054660     -0.084967
O       9.73830      7.78636      6.69224        -0.078694     -0.244626      0.199682
O       9.70492      7.79858     10.88793         0.154699     -0.386781     -0.134735
O       9.73674     11.69058      2.56027        -0.035908     -0.065860      0.004256
O       9.75167     11.68503     15.01796        -0.059176     -0.123191      0.016319
O       9.74629     11.65966      6.72284        -0.152845      0.703622     -0.064957
O       9.72588     11.66636     10.85135         0.059958      0.374904      0.138283
