  # total energy = -7883.12347557 
CRSYTAL
PRIMVEC
    15.6080000000000005    0.0000000000000000    0.0000000000000000
     0.0000000000000000   15.6080000000000005    0.0000000000000000
     0.0000000000000000    0.0000000000000000   16.6239999999999988
PRESSURE
0.182843 -0.087888 1.36649 -0.147017 0.348344 -0.048866
PRIMCOORD
320 1
Pb       3.89897      3.79732      4.10014        -0.065049      0.303266      0.072593
Pb       3.96522      3.92515     16.61900        -0.350066     -0.022134      0.091606
Pb       3.90692     15.55564      4.01908         0.254554     -0.061348      0.464577
Pb       3.91290     15.57177     16.53572        -0.248376      0.005971      0.446781
Pb       0.02580      3.90152      4.08077         0.236467     -0.033996      0.333629
Pb       0.00148      3.82110     16.60137         0.205176     -0.103166      0.311740
Pb      15.59586     15.49136      4.05570         0.064036      0.381131      0.380368
Pb      15.58869     15.59285     16.54927        -0.013803      0.448024      0.119128
Pb       3.86822      3.81260      8.21725        -0.058209      0.110545     -0.059443
Pb       3.85479     15.51038      8.14248         0.090601     -0.116155      0.422588
Pb      15.50115      3.86810      8.26025         0.532376     -0.188754      0.290286
Pb      15.50455     15.53424      8.23855         0.910609      0.153445      0.683992
Pb       3.78953      3.82927     12.46157         0.512194      0.112469      0.041633
Pb       3.90114      0.00566     12.55384        -0.264992     -0.393516     -0.909536
Pb       0.05214      4.04954     12.55734         0.005035     -0.647898     -0.323193
Pb       0.07725      0.05234     12.58422        -0.003741     -0.084571     -0.302742
Pb       3.89481      7.83283      3.98873        -0.326406      0.039617      0.617862
Pb       3.91321      7.78573     16.52177        -0.294986      0.035138      0.531751
Pb      15.47512      7.81969      4.09551         1.279866     -0.212190      1.265691
Pb      15.58050      7.73391     16.51874         0.024704      0.096736      0.382033
Pb       3.76179      7.75633      8.30249         0.567631     -0.440582      0.078264
Pb      15.39723      7.70075      8.47912         0.715054      0.017058     -0.588732
Pb       3.93001      7.74146     12.35079        -0.060125      0.332612      0.403677
Pb      15.51346      7.78563     12.44617         0.605057      0.580261      0.285050
Pb       3.85671     11.71625      4.03313        -0.136530     -0.391780      0.498132
Pb       3.81968     11.74860      0.00197         0.330607     -0.273731      0.264120
Pb      15.52888     11.62523      4.02553         0.576938     -0.011978      0.736635
Pb      15.56402     11.67143     16.53447         0.053660      0.012674      0.343070
Pb       3.86412     11.78610      8.34288         0.378388     -0.209226     -0.384567
Pb       0.04993     11.69950      8.24156        -0.147718      0.315478      0.217084
Pb       3.84494     11.63084     12.38077         0.406418      0.348473      0.071629
Pb       0.03110     11.75846     12.48804        -0.039929     -0.037599     -0.050460
Pb       7.78355      3.78532      4.11870         0.151442      0.235274      0.302547
Pb       7.81429      3.94149     16.54632        -0.130856     -0.135214      0.267921
Pb       7.76826     15.58362      4.15191         0.054801     -0.247443      0.399204
Pb       7.78216      0.09002     16.56671         0.340159     -0.656890      0.173223
Pb       7.80520      3.79738      8.34161        -0.374361      0.347284     -1.066423
Pb       7.80362      0.03343      8.16054        -0.446970     -0.262746      0.254390
Pb       7.85134      3.76195     12.41346        -0.517962      0.423367      1.104150
Pb       7.72550     15.56827     12.35755        -0.089594     -0.250663      0.287725
Pb       7.87981      7.81083      4.16676         0.008149     -0.128278     -0.120891
Pb       7.60858      7.67565     16.60128         0.711734      0.623289      0.314756
Pb       7.79476      7.72269      8.18928        -0.144503      0.163380      0.475491
Pb       7.68066      7.82027     12.40734        -0.107284     -0.101946      0.560496
Pb       7.81123     11.70703      4.12822         0.713676     -0.233184      0.522972
Pb       7.71731     11.81422     16.54111         0.443872     -0.813862      0.663586
Pb       7.89677     11.73200      8.31894        -0.752366     -0.462963      0.333572
Pb       7.78363     11.73859     12.39893        -0.241339     -0.320218      0.149598
Pb      11.79443      3.77915      4.17684        -0.472325      0.207881     -0.206957
Pb      11.67192      3.96308      0.13464         0.485999     -0.592953      0.258666
Pb      11.64131     15.46428      4.07202         0.510805      0.673549      1.073108
Pb      11.65227     15.58737     16.50978         0.319248     -0.519210      0.815920
Pb      11.71777      4.00204      8.38387        -0.144163     -0.517188      0.157164
Pb      11.76614      0.11224      8.34547        -0.136952     -0.292024      0.212202
Pb      11.72226      3.87357     12.39116        -0.262248     -0.052125      0.562333
Pb      11.49176      0.08444     12.40050         0.428554      0.161683      0.350490
Pb      11.75004      7.93996      4.24413        -0.359049     -0.813371     -0.120448
Pb      11.69892      7.79749     16.58569        -0.205675     -0.262559      0.572255
Pb      11.70608      7.71234      8.37337        -0.390288      0.233997      0.007239
Pb      11.60109      7.97037     12.48007        -0.105944     -0.749879      0.671715
Pb      11.88124     11.56559      4.13365        -0.590927      0.313555      0.123868
Pb      11.54832     11.62337     16.54150        -0.040167      0.652835      0.455727
Pb      11.71061     11.83100      8.48816         0.416735     -0.052918     -0.548327
Pb      11.62401     11.70308     12.44791        -0.214580      0.176379      0.364063
Ti       1.99041      1.93792      2.28062        -0.247181      0.102059     -1.028987
Ti       2.05816      1.95852     14.69759        -2.081954      0.465906     -0.549676
Ti       1.87543     13.65354      2.20011         1.099580     -0.384973      0.291752
Ti       1.90836     13.63754     14.65981         0.189975      0.688266     -1.076126
Ti      13.71521      1.87538      2.30544        -0.195401      0.693928     -0.914447
Ti      13.72048      1.94891     14.64238        -0.195072     -0.384767      1.664250
Ti      13.64449     13.61526      2.13841        -0.459493      0.196000     -0.262503
Ti      13.63226     13.60850     14.68295        -0.136024      0.586339     -0.591498
Ti       1.90149      1.86516      6.36587         0.136323      0.541572      0.093760
Ti       1.93654     13.53468      6.22236         0.136939      0.187654      0.781100
Ti      13.63671      1.91029      6.42199         0.173923      0.580717      0.268872
Ti      13.60173     13.62839      6.39539         0.078167     -0.287638      0.145052
Ti       1.92813      1.89938     10.58249         0.377472     -0.298044     -0.264140
Ti       1.90424     13.63767     10.49474         0.322378      0.921876      0.144292
Ti      13.70396      1.98894     10.57873         0.168521      0.139878     -0.962409
Ti      13.58486     13.75960     10.67900         0.860857     -0.165714     -1.104951
Ti       1.92743      5.86305      2.21156        -0.081043     -0.440234      0.665904
Ti       1.89809      5.94560     14.63028         0.675147     -0.999921      0.747031
Ti      13.65567      5.85610      2.28886        -0.318580     -1.049244     -0.079648
Ti      13.60741      5.73718     14.68938        -0.015505      0.598539      1.525469
Ti       1.80818      5.78183      6.37472         0.718275     -0.275015      0.374291
Ti      13.54061      5.83361      6.37671         0.791413     -0.180434     -0.203865
Ti       1.91105      5.82074     10.56748         0.151774      0.309060     -0.999029
Ti      13.58088      5.98970     10.68178        -0.546684     -1.640036      0.625814
Ti       1.92185      9.70321      2.21351         0.567022      0.501855     -0.320864
Ti       1.93559      9.79355     14.68869         0.015719     -0.147650      0.467513
Ti      13.67681      9.65863      2.17166         0.442446      0.705499      0.030411
Ti      13.59567      9.71024     14.77308         0.528487      0.099907      0.435520
Ti       2.00134      9.63168      6.48806        -0.345664      0.220375     -1.454713
Ti      13.70683      9.74682      6.47216        -0.433669      0.053417     -0.646661
Ti       1.92857      9.77754     10.48991        -0.103639     -0.523840      0.663248
Ti      13.63506      9.85882     10.62900         0.480840      0.125551     -0.956747
Ti       5.93972      1.91180      2.16972        -1.113355      0.034965      0.638850
Ti       5.94884      1.85450     14.63242        -0.139509      1.080299      0.616408
Ti       5.93103     13.59451      2.27294        -0.386295     -0.057982      0.130754
Ti       5.81964     13.53468     14.66405         0.127990      0.319473      0.496274
Ti       5.80165      1.82698      6.31727         0.790929      0.767736      0.277858
Ti       5.88167     13.45671      6.35682        -0.079820      1.053283      0.389854
Ti       5.79457      1.91709     10.52150        -0.351176     -0.562107     -0.308347
Ti       5.80178     13.64499     10.53127         0.166986     -0.667510     -1.551565
Ti       5.84267      5.85773      2.25164        -0.203863     -0.448631      0.350980
Ti       5.81734      5.80527     14.74130        -0.311581     -0.692602     -0.777465
Ti       5.75184      5.81962      6.26246         0.352843     -1.122988      0.606102
Ti       5.78328      5.69444     10.57876         0.227561      0.613639      1.581425
Ti       5.97439      9.74493      2.23526        -0.460503      0.361460     -0.306998
Ti       5.77452      9.69683     14.65483         1.089080      0.298719      0.555860
Ti       5.89833      9.63986      6.34613         0.123329      0.492665      1.169938
Ti       5.85915      9.71438     10.56031         0.240820      0.246159     -1.499243
Ti       9.78687      1.90313      2.23378         0.930159      0.590444      0.292046
Ti       9.87420      1.93731     14.82119        -0.273208      0.323535     -0.323003
Ti       9.82283     13.59354      2.28684        -0.291258     -0.366849     -1.470751
Ti       9.71263     13.67346     14.62360        -0.120293     -0.534564      0.830194
Ti       9.82162      1.98407      6.43066        -0.683103      0.310224     -1.081782
Ti       9.76066     13.65356      6.41612        -0.085914      0.112901     -0.925244
Ti       9.70582      1.96844     10.55708         0.410340     -0.442046     -0.040256
Ti       9.76124     13.60537     10.49298        -1.941665      0.482832      0.884318
Ti       9.75685      5.82591      2.24957         0.390060     -0.237739      0.728692
Ti       9.81072      5.85202     14.79762        -0.742821     -0.707357      0.112233
Ti       9.69828      5.86037      6.32576        -0.085287     -0.770776     -0.172059
Ti       9.63858      5.85662     10.74973         0.113222     -0.169846     -0.737472
Ti       9.86601      9.65719      2.13483        -1.609969      0.532234     -1.136726
Ti       9.65718      9.68754     14.69186        -0.341459      0.488984      0.415178
Ti       9.88979      9.75771      6.47056        -1.100319      0.330733     -0.025722
Ti       9.76265      9.72915     10.51402        -1.481484     -0.307411     -0.224434
O       1.88781      2.01543      0.48623         0.230380     -0.473534     -0.428094
O       1.96045      1.87140     12.86572         0.159301      0.141660      0.468146
O       1.96750     13.74070      0.44488        -0.003349     -0.429466     -1.011912
O       1.85279     13.74936     12.83149         0.063486     -0.417346      0.868875
O      13.95288      2.04564      0.54121        -0.889103     -0.606649      0.341417
O      13.72886      1.90532     12.93145        -0.152535      0.309422     -1.798682
O      13.65679     13.66640      0.35618         0.055416     -0.205672      0.362173
O      13.74827     13.62746     12.84829        -0.393671     -0.064408      0.757074
O       1.97521      1.77732      4.60822        -0.057747      0.418739     -0.705261
O       1.86847     13.45945      4.43545         0.042963      0.762815      0.695110
O      13.56446      1.85232      4.66441         0.384563      0.238870     -0.148652
O      13.62177     13.59231      4.62415         0.142488      0.026106      0.346603
O       1.90625      1.93401      8.85557         0.289199      0.179384     -1.254950
O       2.13137     13.59445      8.71036        -0.351519     -0.050129      0.437805
O      13.58886      1.99379      8.74563         0.296981     -0.417681      1.053722
O      13.45666     13.61270      8.86849         0.181793      0.363348      0.022786
O       1.82467      5.75478      0.47924         0.112574      0.580466     -1.309841
O       1.87390      6.03137     12.86790         0.198400     -0.164333      0.080070
O      13.66372      5.75750      0.53047         0.438201      0.253129     -0.182571
O      13.53926      5.83983     12.94922         0.234709      0.033397     -0.800558
O       2.05259      5.76951      4.63471        -0.356518      0.212374     -0.024548
O      13.55997      5.94582      4.61617         0.008308     -0.198135      0.177635
O       1.81868      5.64236      8.79191         0.193623      0.538403      0.205225
O      13.53264      5.96394      8.94208         0.437165     -0.136851     -1.088456
O       1.98783      9.80327      0.43415        -0.215958     -0.127767      0.156445
O       1.95973      9.80591     12.94133        -0.055319     -0.173959     -0.667558
O      13.74920      9.70430      0.41561        -0.036203     -0.156584     -0.150438
O      13.81168      9.78064     13.04313        -0.768052     -0.243912     -1.352849
O       1.98585      9.62335      4.69297        -0.141025      0.104152      0.388570
O      13.60774      9.73852      4.60619        -0.121601      0.015505      0.965728
O       1.78145      9.87796      8.74656         0.480455     -0.107027     -0.547312
O      13.62485      9.67848      8.83980         0.074114      0.430106      0.265104
O       5.86638      1.90157      0.41494         0.039058     -0.265337     -0.241325
O       5.79006      1.81628     12.86617         0.093727      0.054248      0.631564
O       5.91239     13.41626      0.51570        -0.417938      0.474902     -0.423964
O       5.90099     13.59975     12.93503        -0.136563      0.189478     -0.527009
O       5.90198      1.80822      4.54814        -0.285772      0.386667     -0.577801
O       5.99637     13.59047      4.58762         0.068083     -0.078685     -0.413684
O       5.88528      1.92967      8.75118         0.000260      0.066395     -0.484858
O       5.90796     13.63299      8.64759        -0.661494     -0.185306      1.352708
O       5.79345      5.77077      0.45148         0.346195      0.286536      0.457524
O       5.69150      5.81921     13.00577         0.192985     -0.035685     -0.802376
O       5.80528      5.85412      4.49502        -0.254517      0.006933     -0.603913
O       5.82940      5.70795      8.89396         0.136502     -0.027091     -1.944386
O       5.91465      9.84954      0.45025        -0.058582     -0.284879      0.835174
O       5.75788      9.57401     12.90692         0.220251      0.479730     -0.610310
O       5.89610      9.56820      4.60181         0.014241      0.228264     -0.493726
O       5.87041      9.68355      8.76829         0.026120      0.022046      0.696100
O       9.89155      1.74960      0.44958        -0.562109      0.323105      0.168101
O       9.81914      1.98572     13.07115         0.031385     -0.208258     -1.484514
O       9.92623     13.77001      0.47888        -0.415857     -0.117208      0.758973
O       9.65124     13.43000     12.86591         0.273640      0.647966      0.141759
O       9.92024      2.13754      4.63070        -0.515403     -0.482145      0.925762
O       9.75117     13.68136      4.56306         0.112337     -0.572350      1.076121
O       9.83760      1.94396      8.79677        -0.761829      0.014486      0.100442
O       9.62628     13.78375      8.77084         0.561417     -0.200477     -0.872122
O       9.57839      5.95199      0.47608         0.581395     -0.527545     -0.366186
O       9.72826      5.61196     13.07431         0.255877      0.448737     -0.426788
O       9.87899      5.94863      4.57321        -0.397077     -0.487296      0.187669
O       9.59738      5.95063      8.99581         0.257930     -0.230154     -0.564722
O       9.74247      9.62366      0.30724         0.485307      0.179173      1.464211
O       9.72381      9.78936     12.89695         0.286732      0.029552      0.591900
O       9.90637      9.86946      4.68554        -0.001229     -0.423590     -0.193658
O       9.76979      9.49929      8.74627         0.062842      0.215204      0.265514
O       3.91957      1.81184      2.53312         0.277786      0.379302      0.015068
O       3.84099      1.96030     14.99605         1.101885     -0.263357      0.053797
O       3.90647     13.51562      2.49058         0.376167      0.139767      0.069583
O       3.90837     13.62620     14.99320        -0.205839      0.385839      0.113403
O       0.04372      1.83107      2.60921         0.025380     -0.058854      0.573432
O       0.00836      1.96408     15.00893         0.383958      0.062702     -0.185561
O      15.57443     13.64010      2.39704        -0.213272      0.132118      0.382652
O       0.01805     13.62790     14.93046        -0.426069     -0.460745      0.361431
O       3.89833      1.90896      6.66168        -0.166854     -0.094101      0.045426
O       3.91394     13.59824      6.56306        -0.199530      0.293672      0.069154
O      15.60392      2.00262      6.75764        -0.687504     -0.614293     -0.261588
O       0.06465     13.60340      6.70402        -0.890945      0.370959     -0.087450
O       3.94172      1.93947     10.82435        -1.002749     -0.002629      0.483166
O       3.91140     13.59679     10.93834        -0.005719     -0.169345     -0.291355
O       0.02912      1.93065     10.79892        -0.745496      0.044247      0.546190
O      15.52619     13.64896     10.63268         0.636453     -0.143828      0.632102
O       3.84534      5.84444      2.47431         1.204434      0.097732      0.099536
O       3.86120      5.75764     15.02717        -0.620122      0.586205      0.256534
O       0.04917      5.87559      2.68842        -0.907250     -0.285041     -0.131608
O      15.55896      5.87132     14.85887         0.121775      0.450723      0.248629
O       3.85941      5.71770      6.80043        -0.049993      0.878581     -0.360041
O      15.49718      5.81469      6.68288         0.034562     -0.192652      0.188352
O       3.85663      5.92675     10.93443         0.009017     -0.717931     -0.484984
O      15.60198      5.83792     10.99471        -1.188878      0.452736     -0.206768
O       3.89683      9.79808      2.56414         0.103931     -0.364834     -0.282192
O       3.99556      9.69973     15.08733        -1.486827      0.335727     -0.114343
O      15.59867      9.71869      2.62313        -0.202273     -0.117088     -0.500329
O       0.02607      9.68427     15.02478         0.086578      0.210872      0.162494
O       3.86698      9.61015      6.76672         0.139826      0.097925      0.011855
O      15.53024      9.82989      6.70134         0.265182     -0.359325      0.187265
O       3.91223      9.75895     10.78554        -0.903562      0.105735      0.062884
O      15.59659      9.93838     10.91640        -0.483054     -0.603215     -0.209736
O       7.81241      1.96556      2.49901         0.337989     -0.274461     -0.028606
O       7.87348      1.90755     14.94489        -1.376030     -0.062846      0.379594
O       7.91652     13.65105      2.48830        -0.598067     -0.253198      0.255936
O       7.75137     13.63938     15.09210         0.272452      0.452875     -0.507839
O       7.77196      1.95456      6.61708         0.989486      0.406186      0.506226
O       7.81982     13.50185      6.75142         0.356697      0.260479     -0.538889
O       7.71042      1.93368     10.90765         1.198408     -0.114869     -0.163047
O       7.78526     13.49341     10.90277        -0.018540      0.769910     -0.260327
O       7.84850      5.71022      2.58750        -1.189217      0.589321     -0.064744
O       7.73319      5.84674     15.04285         0.999733     -0.295314      0.128509
O       7.74271      5.72584      6.61654         0.718111      0.593786      0.138531
O       7.70418      5.78023     11.02540         0.280797     -0.096573      0.068722
O       7.88362      9.61978      2.61334         0.053421      0.679106     -0.222178
O       7.79935      9.74157     15.06703         0.158861     -0.448577     -0.712067
O       7.84753      9.76657      6.71643        -0.320487     -0.332407     -0.306171
O       7.84736      9.75531     10.88179        -0.278346     -0.341389      0.006984
O      11.75490      1.96817      2.58132         0.146811     -0.060172     -0.378889
O      11.76596      1.80782     15.06088         0.345577      0.560004     -0.244387
O      11.74170     13.68487      2.55961         0.368797     -0.460807     -0.042541
O      11.71007     13.65190     14.92092         0.247631     -0.026895     -0.341170
O      11.69767      1.96249      6.86680         0.137634     -0.280739     -0.592469
O      11.65642     13.72199      6.76782         0.608789     -0.176765     -0.189945
O      11.65262      1.94929     10.89448        -0.269663     -0.436296      0.101820
O      11.56257     13.66419     10.89952         1.078118      0.219074      0.227910
O      11.74985      5.81011      2.52020        -0.153360      0.079971     -0.255190
O      11.70666      5.71437     15.27831        -0.385835      0.649717     -0.874971
O      11.69910      5.79143      6.81368        -0.522567      0.520300     -0.046105
O      11.65255      5.81464     10.98075         0.303169      0.410555     -0.097872
O      11.76518      9.67823      2.49509        -0.132085     -0.069914     -0.036866
O      11.70202      9.79722     15.05530        -0.174543     -0.293697     -0.528069
O      11.72271      9.75836      6.74615         0.563570     -0.212663      0.203547
O      11.60677      9.69011     10.94194         1.383521      0.154798     -0.077566
O       1.93384      3.87852      2.46204         0.062816     -0.511895      0.940561
O       1.86837      3.97993     14.82681         0.216501     -0.565113      0.005669
O       2.08200     15.57150      2.55509        -0.977823     -0.724616     -0.189769
O       1.85498     15.57205     14.88098         0.618502      0.683119      0.580960
O      13.76992      3.87026      2.66029        -0.159017      0.043889     -0.074620
O      13.60157      3.88307     15.11003         0.205894     -0.211068     -0.588587
O      13.63984     15.54363      2.63296         0.296655     -0.135561     -0.598437
O      13.78089      0.01452     14.98366        -0.225929     -0.902228     -0.107561
O       1.88818      3.82234      6.63605         0.110667      0.356551      0.269218
O       1.92443     15.60134      6.74404        -0.091400     -0.865808     -0.365984
O      13.58849      3.86864      6.79844        -0.058864      0.504992     -0.495096
O      13.70602     15.60685      6.81452        -0.474608     -0.546622     -0.501207
O       1.93434      3.96760     10.91711         0.101845     -1.042698      0.665485
O       2.08609     15.56532     10.81127        -0.574513      0.074605      0.238624
O      13.56482      3.87238     10.84256         0.512992      0.490376      0.369379
O      13.61557      0.05719     10.85342        -0.333858     -0.600467      0.200119
O       1.85567      7.76721      2.54799         0.515023      0.688505     -0.227693
O       2.03418      7.92499     15.05247        -0.303685     -1.805112     -0.104702
O      13.72376      7.79599      2.65001        -0.599165     -0.015334     -0.913353
O      13.54629      7.70049     15.17449         0.445936      0.525882     -0.873877
O       1.78296      7.72259      6.86317         0.430644      0.325106     -0.020734
O      13.62515      7.75637      6.84991        -0.086510      0.603097     -0.478040
O       1.91425      7.82722     10.63518        -0.282159      0.635997      0.519461
O      13.63507      7.88192     10.91024         0.142874     -0.176303      0.354461
O       1.85609     11.64460      2.52370         0.074099      0.149806     -0.184523
O       2.01988     11.74669     14.92732        -0.293977     -0.541591      0.403846
O      13.68314     11.62759      2.52004        -0.238053      0.565574     -0.316768
O      13.68271     11.63520     15.06997        -0.001829      0.887883     -0.250901
O       1.96218     11.69356      6.67465         0.058513     -0.340583      0.081126
O      13.64947     11.74859      6.73748        -0.432773     -0.456747      0.060972
O       1.98182     11.76088     10.92174        -0.228675     -0.677322     -0.307152
O      13.44448     11.73118     10.89514         0.254792     -0.516402      0.080989
O       5.75274      3.80649      2.50238         0.295572      0.616682      0.091547
O       5.81674      3.81845     15.13946         0.317288     -0.189039     -0.664465
O       5.91585     15.48913      2.56859        -0.118116      0.532270     -0.488927
O       5.79116      0.00615     15.07970         0.211725     -0.368711     -0.326341
O       5.85905      3.89154      6.55687        -0.413449     -0.310535      0.347435
O       6.00259     15.56056      6.55502        -0.568242     -0.234285      0.438226
O       5.78360      3.78062     10.95748         0.042419      1.077592     -0.174815
O       5.78567     15.48911     10.82457         0.505518      0.991640      0.330513
O       5.90595      7.83089      2.47636        -0.128655     -1.163563     -0.172107
O       5.83120      7.71643     15.01451        -0.147003      0.774364      0.355860
O       5.83861      7.73013      6.67142        -0.031390     -0.100275      0.162204
O       5.87639      7.79074     10.85788        -0.139232     -0.437698      0.131542
O       5.96588     11.65249      2.81411        -0.249599     -0.180581     -1.244966
O       5.82300     11.63984     14.98513         0.136060      0.431358     -0.264749
O       5.78414     11.61428      6.68393         0.138523     -0.370384     -0.305378
O       5.87564     11.69809     10.90346        -0.407560     -0.652114      0.000961
O       9.78654      3.88043      2.60173         0.080842     -0.062453     -0.554203
O       9.80288      3.81299     15.17727        -0.112982      0.854684      0.292960
O       9.81998      0.08728      2.71516        -0.530498     -0.802594     -0.645229
O       9.73177     15.57314     15.01441         0.084268     -0.502301     -0.267547
O       9.82276      3.94208      6.82491        -0.388445     -0.385567     -0.057946
O       9.68572      0.00788      6.63696         0.191151     -0.059160      0.093765
O       9.68950      3.85584     10.96867         0.054521     -0.260252     -0.386080
O       9.56488     15.59120     10.95784         0.894996      0.324874     -0.313719
O       9.77157      7.76815      2.54374         0.242454      0.368898      0.272630
O       9.92777      7.76500     14.95571        -0.483642      0.118681     -0.433156
O       9.77742      7.71973      6.65156        -0.008236      0.803079      0.215173
O       9.71273      7.70102     11.13479         0.016272      0.984726     -0.411884
O       9.85996     11.62453      2.35647        -0.039228      0.222945      0.418341
O       9.72179     11.78910     15.10351         0.154347     -0.798873     -0.435047
O       9.83002     11.72138      6.97594         0.116790     -0.196732     -0.809736
O       9.76999     11.63739     10.64216         0.303841      0.202764      0.224094
