  # total energy = -7882.39491427 
CRSYTAL
PRIMVEC
    15.6080000000000005    0.0000000000000000    0.0000000000000000
     0.0000000000000000   15.6080000000000005    0.0000000000000000
     0.0000000000000000    0.0000000000000000   16.6239999999999988
PRESSURE
-1.13968 -1.40152 -1.59404 0.210447 -0.473987 -0.053259
PRIMCOORD
320 1
Pb       3.75896      3.82981      4.14793         0.450069     -0.113253      0.083931
Pb       3.76911      3.76614     16.51635         0.465742      0.168727      0.083676
Pb       3.91127     15.45634      4.24238         0.453583      0.422043     -0.754467
Pb       4.00853      0.00613     16.61846        -0.049210     -0.150499     -0.550114
Pb       0.02802      3.94352      4.15280        -0.001365     -0.374952      0.027671
Pb       0.01759      3.91875      0.01616         0.227182     -0.063948     -0.453375
Pb       0.05274     15.54375      4.28789        -0.136775      0.217569     -0.840640
Pb      15.60050     15.59821     16.61095         0.193009     -0.265318      0.121480
Pb       4.05448      3.96919      8.24491        -0.274062      0.018920     -0.638189
Pb       3.88567     15.45048      8.30254        -0.104271      0.450570      0.027363
Pb       0.04452      3.93083      8.29044         0.229917     -0.115131     -0.394667
Pb      15.53602     15.56777      8.37364        -0.189831      0.196842     -0.403258
Pb       3.92213      3.77684     12.37691        -0.083233      0.820772      0.616166
Pb       3.97659      0.14512     12.44625        -0.379612     -0.557848      0.336618
Pb      15.55736      3.97607     12.49216         0.024590     -0.020473     -0.184277
Pb       0.00045     15.46188     12.31169        -0.647192      0.621027      1.054411
Pb       3.97298      7.70306      4.07815         0.140715      0.266560      0.231639
Pb       3.89405      7.84778      0.04250        -0.348380     -0.238081     -0.770684
Pb      15.45903      7.71887      4.14193        -0.003174      0.130289     -0.298299
Pb      15.59289      7.75821      0.01295         0.397216     -0.122027     -0.768874
Pb       3.81026      7.81535      8.31095         0.011569     -0.381964     -0.665869
Pb       0.06307      7.78142      8.16055        -0.033270      0.020122      0.385791
Pb       3.81960      7.76113     12.40098         0.063089     -0.146851      0.434678
Pb       0.01834      7.74061     12.36625        -0.377593      0.360473      0.259930
Pb       3.94261     11.61334      4.24518        -0.029901      0.107338     -1.027979
Pb       3.87335     11.69874      0.06244        -0.411529      0.065431     -0.174004
Pb       0.04199     11.61592      4.18203        -0.392243      0.396354     -0.292147
Pb      15.60222     11.55573     16.53821         0.041698      0.551768      0.167606
Pb       3.92335     11.60757      8.42770        -0.487615      0.299678     -0.137723
Pb       0.06253     11.74117      8.33321        -0.332859     -0.020491     -0.007619
Pb       3.78031     11.66942     12.53267        -0.016484      0.269304     -0.724142
Pb      15.41529     11.84581     12.50924         0.453711     -0.903366     -0.024301
Pb       7.87348      3.99716      4.10752        -0.563725     -0.156822     -0.057136
Pb       7.81411      3.78812      0.07192        -0.388805      0.032796     -0.501256
Pb       7.90806      0.05245      4.21718        -0.503450     -0.467336     -0.384676
Pb       7.80713     15.50854     16.53829        -0.672575     -0.012765      0.075434
Pb       7.92463      3.85421      8.17133        -0.626551      0.108722     -0.216996
Pb       7.70111      0.02027      8.22460         0.273025     -0.274638      0.007679
Pb       7.83588      3.94320     12.56879         0.386940      0.111963     -0.622297
Pb       7.75376     15.59259     12.34756         0.512028      0.582132      0.186625
Pb       7.89580      7.77554      4.18375        -0.520474     -0.187751     -0.635198
Pb       7.72305      7.56549      0.08828         0.717528      0.874425     -0.617199
Pb       7.70958      7.73604      8.30224        -0.213154     -0.015582     -0.351281
Pb       7.63797      7.97799     12.53475         0.240127     -0.543079     -0.181709
Pb       7.79601     11.61752      4.15153         0.019116      0.241861     -0.753536
Pb       7.86412     11.66768      0.04117         0.113916     -0.025001     -0.043257
Pb       7.91928     11.60692      8.44363        -0.484566      0.330393     -0.376579
Pb       7.75653     11.84162     12.48002        -0.071776     -0.458099     -0.338224
Pb      11.58481      3.87098      3.95707         0.423724      0.158715      0.140943
Pb      11.62053      3.71936     16.60780         0.135349      0.487636     -0.146964
Pb      11.86226      0.01997      4.15639        -0.130682     -0.043574     -0.550957
Pb      11.78278     15.59805     16.56961        -0.365719     -0.251354      0.305147
Pb      11.66653      3.74234      8.20118         0.281266      0.179803     -0.008656
Pb      11.82583     15.51899      8.37049         0.082548      0.042422     -0.140286
Pb      11.56134      3.94628     12.32736        -0.057684     -0.314342      0.099152
Pb      11.60818      0.08738     12.54260         0.112830      0.088442     -0.709122
Pb      11.65537      8.09367      4.23031         0.179107     -0.933867     -0.029211
Pb      11.79877      7.74372     16.59430        -0.546766      0.370174     -0.580531
Pb      11.70881      7.67441      8.37540         0.263296      0.439216     -0.748026
Pb      11.82733      7.72262     12.43992        -0.229185      0.151918      0.015124
Pb      11.70480     11.95662      4.08097        -0.072883     -0.529670     -0.101927
Pb      11.53719     11.66066      0.05859         0.361685      0.128526     -0.521152
Pb      11.53930     11.59985      8.26288         0.367508      0.185167     -0.060681
Pb      11.68540     11.54770     12.54373         0.001253      0.227301     -0.156300
Ti       1.89005      1.92379      2.19655         0.141150     -0.660787     -0.547196
Ti       1.84436      1.82432     14.68803         0.508906      0.201342      0.881266
Ti       1.96490     13.58357      2.25266        -0.455993      0.215742     -0.155160
Ti       1.94144     13.57673     14.65681        -0.195330      0.438805      0.518367
Ti      13.60647      1.95184      2.13485         0.610300     -0.354471      0.518906
Ti      13.54139      2.02735     14.59543         0.083275     -0.071308     -0.246452
Ti      13.73800     13.65012      2.19870        -0.901824      0.519050     -0.655924
Ti      13.61391     13.70611     14.72909         0.098840     -1.348614     -0.721301
Ti       1.87515      1.94610      6.42269         0.135520      0.589006     -0.295953
Ti       1.88780     13.68228      6.37043        -0.235907     -0.532188     -0.103609
Ti      13.62927      2.00606      6.24178         0.916867     -0.402977      0.407245
Ti      13.64770     13.64593      6.40064        -0.181336     -0.284375     -0.317885
Ti       1.92730      1.96108     10.53036        -0.197743     -0.076834     -1.404173
Ti       1.90713     13.69003     10.55621         0.719748     -0.825054      0.312752
Ti      13.65997      1.97020     10.58034        -1.083654     -0.982561     -0.600932
Ti      13.59018     13.55728     10.58132        -0.494273      0.971497     -0.403800
Ti       1.94696      5.84312      2.19210        -0.227311      0.044421     -0.739866
Ti       2.03168      5.74048     14.59841        -0.068060      1.014296      1.484293
Ti      13.58931      5.90380      2.10497        -0.180127     -0.355426      0.429465
Ti      13.66106      5.82508     14.59559        -0.299872      0.883066      0.746918
Ti       1.92574      5.91240      6.25347         0.776890     -0.917011      0.510069
Ti      13.64732      5.82024      6.28836         0.213642      0.603471     -0.096120
Ti       1.97385      5.73418     10.53667        -0.912118      1.291914     -1.289493
Ti      13.64986      5.77281     10.36893         0.164459      0.464758      1.316386
Ti       1.84973      9.67765      2.27171         0.943089      0.471772     -0.766618
Ti       1.97256      9.71452     14.66471        -0.876156     -0.551346     -0.446269
Ti      13.58766      9.78034      2.19521        -0.074091      0.180893     -0.300667
Ti      13.66238      9.72313     14.63341        -0.414308     -0.072161     -0.281380
Ti       1.86427      9.81301      6.26737         0.281280     -0.526495      0.613851
Ti      13.61360      9.79554      6.42881        -0.410603     -0.249921      0.523080
Ti       1.89892      9.71614     10.60358        -1.330165      0.311081      0.084938
Ti      13.59704      9.69617     10.39243         0.918465     -0.090076      1.151624
Ti       5.82672      1.94216      2.22941        -0.491720      0.025606      0.647722
Ti       5.81454      2.02525     14.59160        -0.378519     -0.490340      1.697199
Ti       5.83112     13.63316      2.17839         0.576798      0.094245      1.027149
Ti       5.83255     13.60427     14.58550        -0.409157      1.353901      1.382212
Ti       5.73439      1.89598      6.31554         0.175915      1.187858     -0.967427
Ti       5.85164     13.60162      6.42587         0.141412      0.287161     -0.936143
Ti       5.82990      2.02377     10.47911         0.808565     -0.030110     -0.082455
Ti       5.78955     13.72910     10.57066        -0.389689     -0.865019     -0.368939
Ti       5.84172      5.81615      2.12757        -0.050635     -0.289887      3.378909
Ti       5.87394      5.89909     14.60411        -0.592433     -0.270392     -0.635194
Ti       5.91183      5.93604      6.35171        -0.697817     -0.248202     -0.632481
Ti       5.82508      5.87421     10.49318         0.917452     -0.203211      0.354496
Ti       5.80922      9.69116      2.13513         0.036665      0.329564      1.716879
Ti       5.87223      9.80667     14.71308        -0.169409     -0.910078     -0.339071
Ti       5.70273      9.90600      6.33467         0.645119     -1.953310      0.256838
Ti       5.73153      9.76111     10.52236         0.329217      0.902706      0.458615
Ti       9.65465      1.89026      2.16944         0.469973     -0.014952      0.302226
Ti       9.63001      1.90337     14.68560         0.022727      0.792809     -1.879028
Ti       9.69101     13.71720      2.16746        -0.128236     -0.659537      0.352596
Ti       9.74875     13.66288     14.64902         0.188673     -0.447023     -0.106503
Ti       9.78336      1.76161      6.29999        -0.725656      0.910498      0.108085
Ti       9.74764     13.60248      6.31821        -0.246798      0.329656     -0.375380
Ti       9.70341      1.99827     10.35523        -0.046844     -0.469295      2.212884
Ti       9.78473     13.64107     10.50454         0.023214      0.387824     -0.188284
Ti       9.79924      5.89588      2.15835        -0.512344      0.478288     -0.064974
Ti       9.73910      5.87258     14.59468         0.268691      0.072561      0.081641
Ti       9.83354      5.80138      6.34079        -0.547404      0.050315     -0.429623
Ti       9.71708      5.89373     10.37916        -0.654806     -0.375592      1.077234
Ti       9.77170      9.78526      2.22942        -1.538291      0.136133     -1.043959
Ti       9.73601      9.67775     14.66753         0.335516     -0.546727     -0.266710
Ti       9.61952      9.67261      6.32273         0.529713      0.874041      0.609173
Ti       9.63324      9.74771     10.59898         0.338349      0.412486      0.240139
O       1.90576      1.98565      0.34506         0.052679     -0.171015      0.778429
O       2.02422      1.98143     12.96238        -0.358837     -0.128669     -1.076451
O       1.90220     13.50251      0.48865        -0.091618      0.249329     -0.043539
O       1.88155     13.65514     12.89258         0.194250     -0.115657     -0.594742
O      13.51578      1.85590      0.34919        -0.011923      0.085640     -0.687944
O      13.42590      2.12268     12.79849         0.438292     -0.372258      1.052132
O      13.69869     13.63701      0.38179        -0.228872      0.394192     -0.244706
O      13.54704     13.58138     12.87485         0.282262      0.083919      0.501579
O       1.72591      1.95107      4.62969         0.608170     -0.134230     -0.377468
O       1.72712     13.69453      4.53065         0.604872     -0.231910      0.887593
O      13.59430      1.92343      4.45384         0.025826      0.303047      0.669678
O      13.65133     13.60396      4.58212        -0.365122      0.235058      0.381955
O       1.79198      1.97737      8.70962         0.220598     -0.114847      0.838449
O       1.79232     13.81887      8.77136         0.261145     -0.555540      0.438407
O      13.61073      1.79302      8.74344        -0.140743      0.484580      0.481290
O      13.70323     13.72349      8.77986        -0.222113      0.107786      0.009866
O       1.99436      5.82753      0.36783        -0.119174     -0.387485      1.139103
O       2.03511      5.63737     12.84835        -0.576300      0.271871     -0.830485
O      13.42252      6.02490      0.33238         0.583516     -0.806625      0.458455
O      13.64838      5.86947     12.82115        -0.108148     -0.228549     -0.199185
O       1.91225      5.81061      4.46347        -0.298473      0.457056     -0.138235
O      13.80456      5.90494      4.49877        -0.458472     -0.217583     -0.211833
O       1.81941      5.90708      8.69506         0.383481     -0.336696      0.674360
O      13.71673      5.69859      8.61702        -0.157453      0.240898     -0.310713
O       1.90847      9.80229      0.45894        -0.075484     -0.272286      0.233520
O       1.87801      9.68319     12.84168         0.397683      0.017637      1.037089
O      13.46809      9.81890      0.41126         0.116636     -0.030758      0.350087
O      13.62951      9.60340     12.81721        -0.034556      0.252901      0.849289
O       1.85539      9.82498      4.50441        -0.005592     -0.129539     -0.646779
O      13.57674      9.66861      4.66450         0.139760      0.211807     -0.822540
O       1.88160      9.64664      8.81431         0.280581      0.299351     -0.005757
O      13.65854      9.69568      8.62688        -0.080659      0.049020     -0.155289
O       5.85830      1.94855      0.45557        -0.216950     -0.173172     -0.493766
O       5.63215      1.99871     12.84935         0.586995      0.124918     -1.013834
O       5.96879     13.77861      0.43883        -0.587991     -0.181148     -0.595532
O       5.79655     13.68840     12.83776        -0.229288     -0.283809     -0.300769
O       5.64701      1.97219      4.49294         0.569564     -0.059119      1.532361
O       5.61732     13.54338      4.59451         0.400791      0.054362      1.393863
O       5.76045      2.00390      8.71351         0.283252     -0.305618     -0.542709
O       5.89375     13.88124      8.74566        -0.396703     -0.393063     -0.057451
O       5.85032      6.04416      0.44286        -0.088133     -0.354644     -2.155299
O       5.84914      5.81567     12.78875         0.199169      0.253988      0.113307
O       5.89591      6.06046      4.55743         0.023889     -0.746796      0.486560
O       5.89380      5.92667      8.70839        -0.399021     -0.300097      0.062509
O       5.81669      9.58851      0.39021        -0.016930      0.362309     -0.630218
O       5.90353      9.70212     12.86492        -0.317494      0.455703      0.928086
O       5.68457      9.89230      4.54235         0.323733      0.020270      0.701167
O       5.59188      9.90985      8.74934         0.261059     -0.738254     -0.364043
O       9.66039      2.01446      0.35366         0.047348      0.155806     -0.278237
O       9.65138      1.96415     12.85348        -0.039685     -0.315581      0.902391
O       9.62711     13.63006      0.36300         0.011697     -0.099441     -0.169446
O       9.84077     13.72908     12.85008        -0.401997     -0.101500      0.504744
O       9.70786      1.82256      4.49376         0.292600     -0.079531      0.186583
O       9.59870     13.82187      4.48236         0.832906     -0.609335      0.924138
O       9.79414      2.05713      8.60042        -0.118027     -0.231820     -0.956608
O       9.66649     13.55583      8.65611        -0.129225     -0.105932      1.199568
O       9.67819      5.73421      0.34565         0.186093      0.179989      0.736330
O       9.63695      5.92544     12.81495         0.151508     -0.064297     -0.694470
O       9.78822      5.99603      4.54784        -0.437748     -0.503137      0.277422
O       9.80724      5.76904      8.59961         0.072229      0.257145      0.044149
O       9.70342      9.91607      0.40319         0.339860     -0.180198      0.134747
O       9.64662      9.58710     12.78564        -0.109188      0.455578      0.863704
O       9.64917      9.73992      4.54575         0.096139     -0.177125      0.289734
O       9.69633     10.09749      8.78195        -0.263620     -0.868512      0.127640
O       3.85683      2.08626      2.54608        -0.697296     -0.233996     -0.468143
O       3.93297      1.92601     14.97454        -1.061305      0.036305      0.443306
O       3.88257     13.63445      2.48954        -0.639373      0.189576      0.080080
O       3.83394     13.63192     15.10059         0.722079     -0.222783     -0.368216
O      15.51738      1.91340      2.34631         0.316817      0.574329      0.185807
O      15.53152      1.94728     14.99263        -0.542396     -0.176064     -0.350111
O      15.50091     13.71397      2.48238         1.841285     -0.145840      0.312620
O      15.58553     13.55825     14.93645        -0.703327      0.489427      0.110106
O       3.85524      1.97221      6.69925        -0.240559     -0.116257     -0.043017
O       3.75654     13.59783      6.79839         0.640333      0.087961     -0.380023
O      15.60396      2.10362      6.61980        -0.852785     -0.665391      0.256464
O      15.54343     13.65658      6.74117         0.574329     -0.391538     -0.052236
O       3.83403      2.02719     10.76840        -0.392426     -0.592943     -0.000393
O       3.88602     13.63550     10.86765        -1.073623      0.528536     -0.267096
O      15.47759      1.97426     10.90678         1.419356     -0.135993      0.021550
O      15.57964     13.62772     10.86879        -0.132465      0.415851      0.088797
O       3.82368      5.85016      2.61200         0.711954     -0.211863     -0.733798
O       3.94956      5.86103     14.86296        -0.765178     -0.476866      0.391247
O      15.53762      6.01937      2.29004        -0.320677     -0.734990      0.353878
O      15.55950      5.85104     14.91560        -0.015741     -0.717793      0.208770
O       3.99535      5.96307      6.72304        -1.063158     -0.518418     -0.172450
O       0.04897      5.85948      6.50461        -0.411429      0.330018      0.388402
O       3.82182      5.84776     10.82398         1.054060      0.026104     -0.485080
O      15.55570      5.75020     10.89980         0.025772     -0.085700     -0.390160
O       3.87640      9.71372      2.46101        -0.311252     -0.127765      0.110616
O       3.80702      9.76347     15.07266         0.737963      0.033693     -0.289598
O      15.48561      9.65856      2.42266         0.118732      0.425553      0.385352
O       0.01327      9.69699     15.04902        -0.336416      0.092127     -0.196438
O       3.76038      9.93257      6.59256         1.200486     -0.296495      0.374953
O       0.01039      9.71883      6.56521        -1.008952     -0.085670      0.453995
O       3.82172      9.81586     10.97709        -0.011262     -0.542178     -0.357072
O      15.53395      9.66564     10.87950         0.250491      0.151806     -0.403886
O       7.78837      1.94458      2.42048         0.012452      0.140384      0.521862
O       7.65345      1.98352     14.88763         1.430084     -0.283898      0.362466
O       7.74063     13.63520      2.49337        -0.388768      0.001926      0.325046
O       7.78204     13.69863     14.91650         0.103542     -0.708968     -0.287876
O       7.81516      1.80192      6.57610        -0.561813      0.099992      0.144690
O       7.78963     13.71746      6.52806        -1.058596      0.038986      0.395595
O       7.77178      1.96762     10.76426        -0.481219     -0.110681     -0.119898
O       7.63779     13.69975     10.95880         1.515821     -0.336210     -0.387208
O       7.78491      5.85016      2.50969         0.514316      0.420898     -0.149295
O       7.78126      5.97952     14.81756        -0.444501     -0.095701      0.751755
O       7.85059      5.88625      6.69351        -0.281737      0.013758      0.043691
O       7.81143      5.82035     10.61075        -0.318112      0.422997      0.292699
O       7.82078      9.72134      2.58723        -0.941890      0.198108     -0.189732
O       7.70979      9.84747     15.11960         0.432963     -0.502374     -0.861884
O       7.67451      9.84875      6.63597         0.685603     -0.133259      0.195922
O       7.62562      9.76548     10.79426         1.510077      0.359969     -0.246508
O      11.67336      1.91360      2.41130        -0.905500     -0.079270      0.344340
O      11.58435      1.95820     14.88361         0.414198      0.029954      0.537090
O      11.60464     13.62438      2.35817         0.382985      0.307548      0.655751
O      11.67639     13.63166     15.05094        -0.429835      0.105680      0.016916
O      11.73382      1.86701      6.60402        -0.012789      0.348540     -0.056387
O      11.67638     13.67262      6.69205         0.255273     -0.000444     -0.238540
O      11.54437      1.93955     10.83078         0.589427      0.186352     -0.236732
O      11.66320     13.54352     10.73016        -0.557380      0.303157     -0.068869
O      11.61499      5.86504      2.54689         0.630032     -0.199269     -0.317616
O      11.66672      5.97132     14.73919        -0.083954     -0.193508      0.507036
O      11.72679      5.77034      6.59699        -0.327231      0.057826      0.207519
O      11.66522      5.93318     10.73411        -0.214797     -0.586181     -0.196355
O      11.57772      9.81615      2.67201         1.840288      0.507676     -0.305673
O      11.64899      9.57795     14.84975         0.131999      0.559709      0.053647
O      11.61927      9.73375      6.70762         0.030628     -0.138152     -0.046278
O      11.75341      9.85031     10.79375        -1.016407     -0.315245     -0.178837
O       1.83929      3.84807      2.55043        -0.159800      0.974843     -0.176403
O       1.86569      3.84094     15.02665         0.150268     -0.072616      0.015861
O       1.87619      0.03724      2.52600         0.249835     -0.390107     -0.012984
O       1.93207     15.49605     15.04649        -0.313735      1.213011     -0.020369
O      13.43722      3.91979      2.28018         0.615744      0.448229      0.288087
O      13.49314      3.93348     15.00158         0.410693     -0.683725     -0.019407
O      13.65415      0.01100      2.59983        -0.587291     -0.304531     -0.377321
O      13.43370     15.59436     14.90385         0.863019      0.731537     -0.200931
O       1.94880      3.97874      6.45352         0.293981     -0.340616      0.886032
O       1.84235     15.56644      6.69468         0.170229      0.520163     -0.269336
O      13.74148      3.90654      6.55757        -0.638369     -0.688897      0.099172
O      13.77042     15.55746      6.61324        -0.569481      0.947974     -0.036879
O       1.92094      3.88114     10.73967        -0.359847     -0.755076      0.356093
O       1.88525      0.03441     10.94274         0.128569      0.076630     -0.536692
O      13.57666      3.86540     10.73953        -0.285526      0.468563      0.049303
O      13.52884     15.58142     10.96657         0.271360      0.152077     -0.250696
O       1.89290      7.79591      2.48617         0.194971     -0.375775      0.100703
O       1.92479      7.63722     14.96937         0.101460      1.480125     -0.120093
O      13.49801      7.87167      2.47925        -0.136675     -0.364050      0.119517
O      13.69088      7.80676     15.06965        -0.177111     -0.122204     -0.412801
O       1.99075      7.83933      6.64451        -0.093823      0.093669     -0.170798
O      13.56967      7.70575      6.70273         0.238192      0.471297      0.018497
O       1.87079      7.69332     10.88759         0.465048      0.691863      0.008924
O      13.59438      7.69959     10.67358         0.083205      0.636278     -0.130054
O       1.85430     11.66721      2.56227        -0.112662      0.290325      0.168553
O       1.91280     11.66735     14.94391         0.101068     -0.462371      0.030090
O      13.64128     11.77466      2.58598        -0.324022     -1.284243     -0.061681
O      13.56552     11.64176     14.84683         0.192764     -0.119088      0.310753
O       1.83151     11.69329      6.74652        -0.181868      0.590017     -0.260068
O      13.63846     11.68681      6.71499         0.151224     -0.112218     -0.084111
O       1.85395     11.72491     10.88297         0.302794     -0.063912     -0.308773
O      13.67195     11.70374     10.77816         0.160739     -0.573055      0.158872
O       5.96332      3.92893      2.44960        -0.435093      0.367765      0.092708
O       5.85973      3.96272     15.05009         0.019310     -0.397813     -0.348547
O       5.73531      0.07376      2.62899         0.043668     -1.159335     -0.291138
O       5.80084     15.56094     14.88871        -0.116208      0.273283      0.250647
O       5.83415      3.88393      6.61562         0.206867      0.071152      0.184624
O       5.66033     15.57429      6.59360         0.366990     -0.210194      0.190563
O       5.76763      3.89545     10.83073         0.096252      0.703257     -0.340738
O       5.78420      0.10379     10.88840        -0.155322     -0.500336     -0.122921
O       5.84836      7.78505      2.56248        -0.165738      0.230852     -0.261036
O       5.73783      7.83051     14.88756         0.390279      0.204229      0.288837
O       5.80606      7.83319      6.66154         0.263495      1.233842      0.382807
O       5.84366      7.82483     10.73513        -0.606944     -0.337418      0.177275
O       5.72929     11.65697      2.46678         0.467055      0.406410     -0.248795
O       5.78488     11.72827     15.03632        -0.092735     -0.227675     -0.206363
O       5.82048     11.71020      6.84207        -0.330627      1.057685     -0.399397
O       5.72071     11.75191     10.81047         0.272014     -0.093672      0.108140
O       9.68894      3.86549      2.56355         0.222388      0.398681     -0.237262
O       9.58249      3.90602     14.73743         0.272225      0.052899      0.907184
O       9.60722     15.60660      2.43461         0.316340      0.273886     -0.160618
O       9.68311     15.59355     14.97504         0.206789      0.043553     -0.047842
O       9.65773      3.87162      6.50784         0.556365     -0.039129      0.129141
O       9.78762     15.55825      6.68978        -0.074062      0.210625      0.024331
O       9.64089      3.90494     10.72177         0.505445      0.637844      0.109414
O       9.66918     15.59729     10.73696         0.021091     -0.499145     -0.156724
O       9.81526      7.85536      2.43891        -0.500699     -0.942206     -0.039449
O       9.71434      7.80975     15.07149        -0.608998      0.054455     -0.136356
O       9.66673      7.83527      6.68828         0.228944     -0.256762      0.189013
O       9.72944      7.92807     10.64233        -0.041425     -1.298324     -0.398088
O       9.68596     11.70514      2.46973        -0.097021      0.734572      0.499963
O       9.82966     11.62082     14.87312        -0.468411      0.896992      0.083129
O       9.76121     11.72161      6.54809        -0.338011     -0.131724      0.105748
O       9.65767     11.74075     10.99854        -0.336868      0.084716     -0.294976
