  # total energy = -7881.37635249 
CRSYTAL
PRIMVEC
    15.6080000000000005    0.0000000000000000    0.0000000000000000
     0.0000000000000000   15.6080000000000005    0.0000000000000000
     0.0000000000000000    0.0000000000000000   16.6239999999999988
PRESSURE
-0.393911 -0.243701 0.663012 -0.226287 0.157163 -0.010216
PRIMCOORD
320 1
Pb       3.84741      3.79061      4.07106         0.397656      0.636810      0.653637
Pb       3.78569      3.78281      0.04846         0.594037      0.528251     -0.118928
Pb       3.90605     15.51908      4.21568         0.145075      0.014057      0.242982
Pb       3.89720     15.53284      0.06320         0.133793      0.087129     -0.106890
Pb      15.48174      3.82720      4.14191         0.253405      0.321400     -0.530128
Pb      15.55123      3.90209     16.54996         0.136733      0.057199      0.671092
Pb       0.10711      0.01145      4.17917        -0.220325     -0.525946      0.100936
Pb       0.06131     15.55506     16.62013        -0.312076      0.085488      0.613736
Pb       3.96954      3.98551      8.35116         0.192921     -0.349163     -0.677765
Pb       3.92345      0.15308      8.46950         0.112567     -0.256245     -0.814034
Pb       0.03327      3.91176      8.23012        -0.284291      0.371138     -0.223584
Pb       0.09495      0.05527      8.28724        -0.304458      0.007551     -0.054211
Pb       3.84658      3.99636     12.43345        -0.166912      0.027355     -0.242967
Pb       3.83918     15.53256     12.34523         0.484010      0.523204      0.177993
Pb      15.54071      3.76091     12.24197        -0.143981      0.064315      1.504249
Pb      15.50912     15.59365     12.39535         0.569896      0.335196     -0.046370
Pb       3.81690      7.75815      4.18634         0.305514      0.120783     -0.453404
Pb       3.77552      7.79208     16.58102         0.776002     -0.243017      0.238100
Pb      15.57533      7.82549      4.04295         0.278813      0.058672      0.058381
Pb       0.00794      7.79981      0.00199        -0.023869     -0.090581     -0.104664
Pb       4.03126      7.82363      8.24175        -0.521101     -0.014464      1.074462
Pb       0.03067      7.84140      8.21653        -0.126065     -0.446422      0.659996
Pb       3.78250      7.85875     12.53938         0.226109     -0.285466     -0.235471
Pb      15.57576      7.75975     12.41788        -0.309952     -0.327203      0.085815
Pb       3.96008     11.68658      4.20451        -0.107744     -0.209404      0.106056
Pb       3.88640     11.66919     16.51363        -0.002190     -0.240598      0.522942
Pb       0.04181     11.81021      4.16869         0.005586     -0.390712     -0.226325
Pb       0.06199     11.76732      0.07132        -0.174982     -0.128239      0.137967
Pb       3.88552     11.61240      8.25906         0.101671      0.297157      0.295698
Pb      15.45208     11.72102      8.29842         0.253657     -0.225134      0.050842
Pb       3.76895     11.82592     12.53643         0.701480     -0.464254      0.113989
Pb      15.49933     11.55815     12.37488        -0.364160      0.691933      0.315126
Pb       7.73583      3.93344      4.09069         0.467294     -0.045045      0.394324
Pb       7.62133      3.67873      0.00898         0.076540      0.613852      0.203524
Pb       7.71823     15.60433      4.06985         0.210170      0.148071      0.739978
Pb       7.77207     15.43057      0.02226         0.418514      0.546389     -0.817698
Pb       7.76876      3.95041      8.27054         0.410614     -0.301353      0.176060
Pb       7.79958     15.53101      8.44629         0.133267      0.398738     -0.274851
Pb       7.76110      4.05751     12.47633         0.444920     -0.086441      0.021156
Pb       7.88192      0.12019     12.50305        -0.555106     -0.280962     -0.263920
Pb       7.61326      7.79368      3.97058         0.630606     -0.306843      0.440066
Pb       7.89982      7.82439     16.54107        -1.069568     -0.955153      0.075730
Pb       7.82809      7.81478      8.43389         0.020183      0.041991     -0.594383
Pb       7.82760      7.80330     12.55495         0.105645     -0.345421     -0.161283
Pb       7.72503     11.76862      4.05754         0.581794     -0.629838      0.834737
Pb       7.81006     11.52675     16.61112         0.128361      0.462006     -0.606764
Pb       7.62018     11.64711      8.35747         0.133107     -0.377903     -0.471153
Pb       7.72495     11.65221     12.51859         0.436507      0.084959      0.380554
Pb      11.65981      4.02531      4.19207        -0.183688     -0.361100     -0.428965
Pb      11.74387      3.80383     16.46121        -0.561091      0.109569      1.051264
Pb      11.82845      0.22389      4.21448        -0.379590     -0.573968     -0.036900
Pb      11.70378     15.55539      0.02568        -0.070163      0.127540     -0.211142
Pb      11.66327      3.80467      8.21874         0.042871      0.563187     -0.029614
Pb      11.55010     15.43920      8.21331         0.271904      0.379015     -0.016224
Pb      11.62098      3.85768     12.42037        -0.105198      0.179711      0.039752
Pb      11.85672     15.52799     12.43174        -1.106628      0.361745      0.775512
Pb      11.73872      7.74158      4.02198        -0.306418      0.241319      0.200272
Pb      11.64574      7.72925     16.57541         0.175946      0.352318     -0.015067
Pb      11.70199      7.85097      8.08376        -0.318000     -1.052530      1.128125
Pb      11.77447      7.65040     12.47557        -0.509483     -0.026448     -0.384916
Pb      11.55712     11.91509      4.26490         0.574609     -0.722437     -0.706550
Pb      11.85947     11.78553     16.60534         0.021781     -0.124389     -0.203932
Pb      11.67738     11.61071      8.18365        -0.075879      0.155971      0.400473
Pb      11.56903     11.60287     12.36462         0.302344      0.009021      0.598211
Ti       1.99582      1.87289      2.37191        -0.361634     -0.171584     -0.203691
Ti       1.93184      1.84394     14.78285        -0.078566      0.336667     -1.767783
Ti       2.12211     13.53447      2.30817        -1.155327      0.628348     -1.047324
Ti       1.95261     13.57140     14.63809         0.373594      0.539440      0.881085
Ti      13.67484      1.91355      2.20038        -0.068599      0.345588     -0.576194
Ti      13.66475      1.97579     14.77106        -0.457061     -0.075750     -0.482260
Ti      13.69233     13.59357      2.30397        -0.223161      0.860444     -0.819023
Ti      13.73346     13.73728     14.65551        -0.644284     -0.770550      1.262394
Ti       1.91280      2.09090      6.37366         1.028337     -1.577119      0.637841
Ti       1.92336     13.62600      6.48680         1.910206      1.178995     -0.388530
Ti      13.64650      1.97494      6.29690        -0.225458     -0.352118      0.997500
Ti      13.71599     13.62876      6.30912        -0.326239      1.034126      0.231064
Ti       1.97498      1.92669     10.53145        -0.115147     -0.124506     -0.365527
Ti       1.91823     13.60572     10.49862        -0.547906      0.750704     -0.160641
Ti      13.53072      1.89656     10.37885         0.754993      0.006900      0.487373
Ti      13.55289     13.66345     10.56345         0.851750     -1.004046     -1.535259
Ti       1.94482      5.78927      2.24443        -0.047380      0.258623      0.756770
Ti       1.91499      5.75961     14.69972         0.286215      0.375569     -0.666351
Ti      13.72434      5.91158      2.06442        -0.620409     -0.970874      1.117291
Ti      13.62344      5.97750     14.68652         0.495468     -1.111917      0.210706
Ti       2.02354      5.99247      6.25871        -0.367830     -0.980751      0.495150
Ti      13.76798      5.87834      6.21698        -0.798719     -0.736656      2.101197
Ti       1.85680      5.93541     10.48378         0.937694     -0.551165     -0.224700
Ti      13.71052      5.69809     10.39336        -1.822505      1.104889     -0.766567
Ti       1.99131      9.74697      2.26764         0.200254      0.025582      0.265677
Ti       1.89963      9.76573     14.68301         0.577005     -0.636855      0.209830
Ti      13.60268      9.79844      2.25135         0.285203      0.370794     -0.232369
Ti      13.71931      9.79915     14.65762        -1.457351      0.330958      0.087154
Ti       1.86345      9.76647      6.33375         0.631058      0.024019      0.168064
Ti      13.61526      9.69423      6.35412         0.123594      0.419895     -0.654135
Ti       1.83431      9.78684     10.56876         1.153296     -0.398521     -0.889538
Ti      13.55672      9.59833     10.54513        -0.295491      0.319760     -0.265893
Ti       5.89467      1.85452      2.29537        -0.569369      0.385644     -0.415637
Ti       5.75908      1.93048     14.60067         0.913069      0.204934      0.457263
Ti       5.90367     13.46279      2.12355        -1.137896      1.837936      0.343944
Ti       5.88320     13.65713     14.62269        -0.000335     -0.562718     -0.116030
Ti       5.88258      1.94624      6.41016        -0.361776     -0.548477      1.604931
Ti       5.85369     13.70884      6.50223        -0.806128     -0.483218      1.665100
Ti       5.92355      2.07438     10.58889        -0.793674     -1.022538     -0.611656
Ti       5.87519     13.56647     10.61093        -0.193106      0.841569      0.868106
Ti       5.76156      5.76309      2.23788         0.577735      0.109394     -1.631095
Ti       5.78624      5.81507     14.61161         0.440998      0.338960      1.874059
Ti       5.91795      5.87540      6.37801        -0.666573     -0.494515      0.353534
Ti       5.81628      5.89920     10.49080         0.444220     -0.705811     -0.070761
Ti       5.85523      9.73615      2.12539        -1.240590     -1.351931     -0.097182
Ti       5.82228      9.75898     14.70538        -0.139080     -1.065154      1.619003
Ti       5.78290      9.68221      6.30602         1.033583      0.967221      0.982101
Ti       5.77069      9.68224     10.68613         0.152848      0.312106     -0.876382
Ti       9.79102      1.89688      2.21975         0.112656      1.051054     -0.029328
Ti       9.64865      1.93501     14.67782         0.281157     -0.114772      0.760600
Ti       9.70485     13.71615      2.21204         1.391928     -0.233664     -0.426200
Ti       9.80566     13.59989     14.65853        -0.436734      0.381353     -0.196822
Ti       9.70697      1.87019      6.39911         0.136845      0.357955     -0.175871
Ti       9.71198     13.51341      6.33061        -0.760708      1.172108      0.875623
Ti       9.76608      1.89212     10.55770        -0.907040      0.448510     -1.526977
Ti       9.73115     13.63805     10.60875        -0.371962     -0.167375     -0.534558
Ti       9.78907      5.77121      2.15767        -0.060753      0.019047      0.667000
Ti       9.70607      5.76988     14.76242        -0.719041     -0.322555     -0.825673
Ti       9.77897      5.81781      6.34705         0.286325     -0.453811     -0.237475
Ti       9.76810      5.84594     10.53937        -0.079528     -0.389892     -0.842038
Ti       9.75602      9.76451      2.13031         0.331194      0.042570      1.666181
Ti       9.77448      9.72034     14.71163         0.678733      0.189440      0.718253
Ti       9.69257      9.72081      6.22690        -0.765176     -0.486256      0.784823
Ti       9.70059      9.69170     10.57142        -0.214923     -0.207639     -0.804762
O       1.94806      1.89744      0.63213         0.397902     -0.028387     -1.861130
O       1.94477      1.76704     12.97269        -0.106807      0.528192      0.894451
O       2.05074     13.33694      0.49462         0.363779      0.843742     -0.233891
O       1.88711     13.63733     12.90838        -0.055466      0.135231     -0.402669
O      13.58928      1.92775      0.38436         0.194676     -0.444791      0.782328
O      13.66708      2.02626     12.99802        -0.349431     -0.391660     -0.359938
O      13.55184     13.66325      0.43776         0.449258     -0.223133      1.006997
O      13.68819     13.76798     12.91578        -0.084579     -0.225462     -1.133234
O       1.87531      1.81269      4.60533         0.436067      0.259442     -0.246637
O       1.96924     13.72792      4.68141         0.108625     -0.491812     -0.364507
O      13.75145      1.98685      4.50807        -0.169723      0.091652     -0.333675
O      13.74848     13.58656      4.53642         0.104589     -0.050800      0.111692
O       1.87755      1.90601      8.74155        -0.091197      0.355578     -0.164375
O       2.01646     13.50657      8.73238        -0.502583      0.358252      0.244095
O      13.62397      1.86667      8.65375         0.164358     -0.085505     -0.318706
O      13.53995     13.71558      8.74126         0.125252     -0.496599      0.513162
O       1.87476      5.77267      0.51028         0.104584      0.137212     -1.342619
O       2.06356      5.74978     12.88360        -0.399492      0.324459      0.199962
O      13.68592      5.99405      0.30850         0.176807     -0.099827      0.012808
O      13.54668      5.80405     12.91562         0.100343      0.405856      0.034110
O       2.01056      5.91758      4.49503         0.050196      0.170866     -0.016981
O      13.68869      5.87836      4.46229        -0.133751     -0.181731     -0.018843
O       1.79339      6.01924      8.70968         0.164648     -0.909671      0.592041
O      13.77114      5.81385      8.62558         0.173544     -0.076477      0.846989
O       2.00185      9.92400      0.50335        -0.501127     -0.514553     -0.944662
O       2.04090      9.75831     12.90312        -0.605725     -0.476365     -0.064256
O      13.64865      9.87243      0.44931         0.216397     -0.113938      0.581597
O      13.68721      9.66945     12.82956        -0.000185      0.073566      0.593578
O       1.99150      9.68115      4.55433         0.031684      0.328325      0.792918
O      13.63636      9.69074      4.61026         0.261281     -0.095340     -0.257296
O       1.92834      9.70609      8.81287        -0.244158      0.241222      0.243625
O      13.59077      9.69390      8.76993        -0.121291      0.300445     -0.309535
O       5.78718      1.93052      0.51795         0.006960     -0.304762     -0.123647
O       5.83785      1.96731     12.82974        -0.142166      0.157501      0.260218
O       5.76687     13.62490      0.37803         0.126177      0.039748     -0.173017
O       5.87009     13.45078     12.83383         0.114507      0.845761      0.863052
O       5.87827      1.77896      4.68778         0.005358      0.155950     -1.504916
O       6.01665     13.54630      4.80800        -0.246045      0.208515     -2.266367
O       5.94678      2.01211      8.78884        -0.466260      0.134931      0.328636
O       5.63609     13.44615      8.86907         0.794402      0.111072      0.086910
O       5.95712      5.61181      0.45214        -0.547855      0.614493      1.043714
O       5.85752      5.88401     12.83717        -0.748782     -0.295707     -0.066973
O       5.76070      5.87488      4.62505         0.280220     -0.055014     -0.566910
O       5.94244      5.80060      8.66940        -0.373558     -0.157473      0.140922
O       5.89473      9.62756      0.34348         0.009322      0.338580      1.031324
O       5.82960      9.67514     12.97338        -0.109598     -0.714812     -1.373582
O       5.75184      9.83228      4.56019         0.031927     -0.370674     -0.219669
O       5.78002      9.71585      8.84192         0.674604      0.044493      0.852161
O       9.75092      1.93734      0.45715        -0.078999     -0.375768      0.106089
O       9.72495      2.11752     12.91676        -0.281386     -0.629787     -0.949749
O       9.82302     13.89819      0.42424        -0.409167     -0.612393      0.577290
O       9.81301     13.54026     12.86776        -0.332581      0.347327      0.596863
O       9.92488      1.90944      4.61299        -0.692152      0.191483      0.262233
O       9.56699     13.47230      4.55413         0.287920      0.103328      0.140555
O       9.79947      1.72844      8.69944        -0.154559      0.315785      0.962064
O       9.85415     13.75728      8.79429        -0.047408     -0.594862      0.293251
O       9.81889      5.93809      0.37851        -0.374303     -0.148235      0.262882
O       9.81115      5.71930     12.93633         0.081271      0.013900     -0.080807
O       9.86533      5.65008      4.55433        -0.003971      0.235866      0.183348
O       9.69479      5.82604      8.73774        -0.345657      0.388817      0.288096
O       9.62337      9.61980      0.36433         0.627057      0.232693      0.573180
O       9.71754      9.71923     12.99073         0.345923      0.043298     -0.852909
O       9.90681     10.04027      4.52590        -0.758356     -0.663511     -0.336343
O       9.62511      9.56371      8.74485        -0.078277      0.217210      0.816048
O       3.94995      1.92839      2.66993        -0.357564      0.090692     -0.111840
O       3.87738      1.96842     15.01840        -0.718440     -0.196651      0.204844
O       4.05242     13.61749      2.70308         0.075133     -0.567767     -0.234334
O       3.96270     13.40832     14.85899        -0.677799      0.853048      0.123956
O       0.07501      1.73400      2.57610        -0.711630      0.664927     -0.172697
O      15.57829      1.87058     15.10381         0.813719     -0.047773     -0.002844
O       0.15674     13.54312      2.50065        -1.304631      0.368593      0.139930
O       0.04972     13.69250     15.05368        -0.129371     -0.382930     -0.121502
O       3.94325      1.84064      6.84905        -1.086482      0.325128     -0.395087
O       3.90498     13.67689      6.74917        -0.329325     -0.159373     -0.217549
O       0.01425      2.10486      6.66308        -0.072091     -0.422429      0.064186
O       0.06717     13.54249      6.71055        -2.024999      0.152011      0.253855
O       3.88901      1.93127     10.70855        -0.254514      0.378537      0.431130
O       3.81959     13.57702     11.01540         0.384346     -0.106698     -0.627668
O      15.54035      1.91498     10.85723        -0.458855     -0.658206     -0.494511
O      15.57698     13.82538     10.83969        -0.197686     -0.720237     -0.316998
O       3.89215      5.71461      2.48409        -0.230770     -0.113217      0.126707
O       3.83495      5.62650     14.97354         0.226859      0.451782      0.129554
O      15.59729      5.86398      2.51319        -0.140636      0.188489     -0.059100
O      15.58901      5.92333     14.98677        -0.219210     -0.137989     -0.012326
O       3.88491      6.05616      6.72412         0.000609     -0.946242     -0.225140
O       0.04741      5.81515      6.53938        -0.539987     -0.012265     -0.073916
O       3.89499      5.94456     10.68191        -1.199104     -0.781878      0.438873
O      15.51396      5.77094     10.94308         0.703176      0.284539     -0.437178
O       3.94865      9.83305      2.52232         0.069848      0.013867      0.055999
O       3.91365      9.65330     15.13188        -0.982450      0.298939     -0.759196
O       0.11492      9.79459      2.68190        -0.994661     -0.162328     -0.621227
O      15.58930      9.85465     14.95690         0.886768     -0.469204      0.063073
O       3.85919      9.55928      6.74564        -0.284353      0.855333     -0.770936
O      15.53954      9.69996      6.80393         0.414027      0.626754     -0.727384
O       3.89978      9.68823     10.91357        -0.739708     -0.112224      0.076308
O      15.55409      9.60171     10.79361         0.056779      0.739928      0.506823
O       7.78979      1.97172      2.59460         0.497497     -0.082121     -0.059039
O       7.76420      1.90751     15.06646        -1.114545     -0.214508     -0.304832
O       7.73374     13.71926      2.50982         0.649329     -0.123222     -0.325866
O       7.77016     13.50110     15.05718        -0.006458      0.657256     -0.075895
O       7.80489      1.95945      6.73651         0.439169     -0.179248     -0.285257
O       7.78365     13.60251      6.84215         0.704538     -0.504248      0.300744
O       7.73403      1.85011     10.79143         1.489589      0.253773      0.582469
O       7.83908     13.59610     10.78139        -1.053458     -0.269518      0.026089
O       7.85266      5.76961      2.64828         0.107116      0.686419     -0.541932
O       7.72176      5.87901     14.84876         0.854599     -0.039257      0.239686
O       7.75204      5.72702      6.63292         0.867406      0.004438     -0.200795
O       7.74327      5.81763     10.88215         1.225817      0.291237     -0.034056
O       7.75369      9.72693      2.52457         0.693876     -0.415282     -0.277282
O       7.78143      9.66419     15.09735         0.411345     -0.061011     -0.663532
O       7.74230      9.72539      6.52170         0.262199     -0.035530      0.286658
O       7.85925      9.75518     11.11056        -1.063900     -0.837830     -0.948214
O      11.73663      1.87771      2.56096         0.630007     -0.049243     -0.287136
O      11.56383      1.99081     14.99696         1.329269     -0.260068     -0.087890
O      11.70881     13.66956      2.58212        -0.543529     -0.256353     -0.042083
O      11.68323     13.66609     14.98203         0.475595      0.208244     -0.031106
O      11.76734      1.96013      6.57669        -0.153854     -0.309170      0.161445
O      11.65908     13.61608      6.54742         0.136627     -0.551510      0.055131
O      11.60433      1.79968     10.76118         1.418721      0.351491      0.434961
O      11.60601     13.58410     10.93974         1.590145      0.215717     -0.088671
O      11.77207      5.87125      2.43697        -0.184138      0.133515      0.158858
O      11.72754      5.75150     15.00219        -0.028494      0.601336     -0.042294
O      11.70444      5.80040      6.69978         0.240652      0.093683     -0.451496
O      11.68724      5.74830     10.67699         0.211824      0.237849      0.739580
O      11.75638      9.92962      2.65277        -1.026129     -0.766053     -1.079766
O      11.72455      9.68712     15.03683         0.112048      0.450394     -0.222851
O      11.64291      9.67164      6.67767         0.525270      0.493013     -0.151805
O      11.61109      9.65990     10.78897         1.247885      0.477066      0.444072
O       1.90315      3.88160      2.64143         0.054748     -0.844277      0.044861
O       1.83958      3.90459     15.13538         0.089560     -1.372252     -0.503609
O       2.18471     15.46414      2.47295        -0.325339      0.953778      0.375774
O       1.99625     15.51321     15.15365         0.255296      0.310819     -0.105564
O      13.70242      3.87619      2.35210         0.393990     -0.098650      0.410324
O      13.71382      3.89502     15.13087        -0.201622      0.232505     -0.701683
O      13.69331     15.53793      2.59093         0.094950      0.266357     -0.169749
O      13.69028     15.60491     14.99866        -0.290596      0.009095      0.079551
O       2.02880      3.94635      6.52362         0.168033      0.138419      0.511398
O       1.80633     15.60418      6.76442         0.319543     -0.036480     -0.027224
O      13.63836      3.90390      6.72738         0.369236      0.251713     -0.713891
O      13.68488     15.60378      6.44405         0.388055     -0.362468      0.437837
O       1.78933      3.83193     10.87008         1.041012      0.671657     -0.468465
O       2.01423     15.59272     10.78188        -0.314795     -0.280707      0.086513
O      13.52935      3.80473     10.66667         0.458409     -0.082119      0.325157
O      13.53820     15.55654     10.85793         0.177838      0.737291     -0.025538
O       2.07066      7.76358      2.47303        -0.322681      0.480437      0.106287
O       1.95435      7.74473     15.01749        -0.138468      0.703794     -0.101140
O      13.70337      7.83884      2.45996        -0.079534      0.045978      0.019290
O      13.72839      7.90706     15.10364        -0.283150     -0.743611     -0.721975
O       1.85254      7.82455      6.65425        -0.109864      0.483037     -0.214175
O      13.63659      7.78105      6.63950         0.144499     -0.361723     -0.229662
O       1.78767      7.76961     10.80800         0.367816      0.266342      0.756610
O      13.58904      7.72558     10.75661         0.188585     -0.246282      0.491769
O       2.01766     11.70483      2.59298         0.396689     -0.807758      0.940456
O       2.00649     11.64095     14.94007        -0.391747      0.252424     -0.074137
O      13.68572     11.68056      2.59050         0.432785      0.747430     -0.032237
O      13.69345     11.75882     15.01149        -0.209525     -0.251931     -0.324889
O       1.89940     11.66656      6.73731         0.232680     -0.881587     -0.406488
O      13.65176     11.70197      6.56316        -0.204700     -0.365877      0.794767
O       1.79797     11.73308     10.92959         0.119855     -1.017592     -0.310144
O      13.69228     11.72094     10.85123        -0.180599     -0.220818     -0.086059
O       5.89290      3.89744      2.58808        -0.269951     -0.904179      0.508694
O       5.84454      3.81176     15.07198        -0.150804      0.035729     -0.764783
O       5.83634     15.58650      2.61001         0.111802     -0.481137     -0.352488
O       5.77384     15.58553     14.90115         0.104762     -0.701220      0.171383
O       5.71263      3.79842      6.65045         0.176392      1.644491      0.232358
O       5.89660     15.56920      6.95071         0.011560      0.047772     -0.416264
O       5.89254      3.97502     10.86839        -0.614147     -0.793263     -0.032832
O       5.86675     15.58078     10.92867        -0.339982     -1.024479     -0.321031
O       5.63416      7.73772      2.57869         1.206093      0.574280     -0.302558
O       5.71706      7.66239     15.12189         0.114494      0.134575     -0.629167
O       5.92059      7.77275      6.74875         0.010764      0.326868     -0.325062
O       5.89549      7.69905     10.77790         0.157066      2.023404      0.523026
O       5.92875     11.63998      2.47215        -0.161751      0.302342     -0.203655
O       5.89301     11.57364     14.97153         0.033567      0.981528      0.147122
O       5.73169     11.63820      6.81548         0.423792     -0.458895     -0.325241
O       5.88584     11.56709     11.09917        -0.351811      0.734354     -1.216470
O       9.90448      3.86870      2.51156        -0.477783      0.527797     -0.116264
O       9.58276      3.88702     15.08567         0.531841      0.350130     -0.099528
O       9.72284      0.05037      2.54106        -0.164424     -1.258053      0.286862
O       9.57230      0.01333     14.95171         0.426045     -0.849308     -0.210329
O       9.80660      3.83174      6.77549        -0.385550     -0.063018     -0.269333
O       9.73331     15.50668      6.62319        -0.040215     -0.127661     -0.093663
O       9.71441      3.83216     10.81441        -0.004143      0.086519     -0.065948
O       9.67769     15.57984     10.92187         0.158725     -0.311601      0.310663
O       9.84426      7.82471      2.59497        -0.386737      0.394999     -0.468390
O       9.80762      7.74327     14.89609        -0.199295      0.144421      0.530659
O       9.71900      7.68942      6.44429        -0.076894      1.073204      0.417839
O       9.79184      7.76727     10.93698        -0.503031     -0.562030      0.120065
O       9.61169     11.74944      2.39512         0.222953     -0.209390     -0.357883
O       9.75378     11.70466     15.07512         0.002234     -0.390189      0.032562
O       9.70723     11.53923      6.81067         0.212018      1.710376     -0.243849
O       9.71762     11.59852     10.99775         0.179067      0.693381     -0.958617
