  # total energy = -7883.29675158 
CRSYTAL
PRIMVEC
    15.6080000000000005    0.0000000000000000    0.0000000000000000
     0.0000000000000000   15.6080000000000005    0.0000000000000000
     0.0000000000000000    0.0000000000000000   16.6239999999999988
PRESSURE
0.024398 -0.092875 1.50324 -0.163902 0.340345 -0.042082
PRIMCOORD
320 1
Pb       3.90802      3.79829      4.10032         0.133020      0.118254      0.128751
Pb       3.97880      3.93674      0.01009        -0.211022     -0.239413     -0.061489
Pb       3.90693     15.56206      4.01264         0.353550      0.025167      0.408455
Pb       3.90297     15.57125     16.53971        -0.263220      0.103997      0.334229
Pb       0.02768      3.89552      4.07977         0.195206     -0.284920      0.711891
Pb      15.60462      3.81357     16.60191         0.192825      0.111026      0.241787
Pb      15.59182     15.48947      4.04420        -0.040347      0.457459      0.461085
Pb      15.58680     15.59217     16.55313         0.026075      0.169146     -0.016916
Pb       3.84840      3.80393      8.22303        -0.120023      0.109452     -0.047810
Pb       3.85283     15.52769      8.14182        -0.247939     -0.423220      0.475520
Pb      15.49368      3.85928      8.26106         0.544397     -0.000874      0.309511
Pb      15.50959     15.53903      8.22857         1.220241     -0.010241      0.918520
Pb       3.78227      3.83456     12.46415         0.558741      0.191800      0.277179
Pb       3.89278     15.60154     12.55130        -0.033256     -0.435672     -0.805908
Pb       0.05657      4.04737     12.55570         0.009580     -0.751956     -0.354441
Pb       0.07652      0.07180     12.59940        -0.213007     -0.229425     -0.247999
Pb       3.88588      7.84176      3.99773        -0.227859      0.123801      0.589316
Pb       3.91072      7.78150     16.52006        -0.318897      0.022468      0.308174
Pb      15.48871      7.82781      4.10452         1.088253     -0.216954      0.888554
Pb      15.57802      7.73823     16.51535        -0.040544      0.075630      0.446327
Pb       3.77030      7.75036      8.30271         0.203041     -0.267025      0.057138
Pb      15.37977      7.70243      8.49801         0.794361     -0.069106     -0.669910
Pb       3.93320      7.74393     12.35518         0.007451      0.542733      0.207327
Pb      15.51110      7.79250     12.45682         0.414334      0.809994      0.444376
Pb       3.85153     11.71931      4.02582         0.031191     -0.404788      0.619163
Pb       3.81816     11.74675     16.62077         0.336465     -0.141841      0.018555
Pb      15.52453     11.62691      4.02060         0.633668      0.013310      0.740021
Pb      15.56131     11.68356     16.53648        -0.009741     -0.258783      0.204702
Pb       3.86061     11.78706      8.33066         0.039875     -0.154581     -0.408647
Pb       0.04311     11.69429      8.23955         0.130928      0.276840      0.243515
Pb       3.85491     11.63139     12.37515         0.261098      0.164416     -0.079732
Pb       0.04785     11.74898     12.48154        -0.258303     -0.103662     -0.136473
Pb       7.77989      3.76951      4.12696         0.317219      0.248339      0.054064
Pb       7.81065      3.95321     16.54461        -0.139952     -0.137804      0.518063
Pb       7.75827     15.57564      4.14831         0.153415     -0.108295      0.101735
Pb       7.78448      0.10342     16.57582         0.417017     -0.723589      0.381174
Pb       7.79254      3.80390      8.35249        -0.470131      0.352839     -1.013113
Pb       7.81458      0.03309      8.16832        -0.544266     -0.272389      0.261472
Pb       7.84697      3.75086     12.40640        -0.545536      0.469741      1.076255
Pb       7.71933     15.56469     12.36811        -0.039566     -0.142035      0.287246
Pb       7.86833      7.81766      4.17021         0.251909     -0.112930     -0.183685
Pb       7.60712      7.68934     16.59739         0.976431      0.542928      0.316042
Pb       7.79779      7.72091      8.18912         0.143904      0.182680      0.330934
Pb       7.68803      7.80706     12.40677        -0.274781     -0.182154      0.678710
Pb       7.81800     11.71300      4.13683         0.459868     -0.245814      0.270441
Pb       7.71052     11.81578     16.54081         0.439962     -0.742380      0.597464
Pb       7.88338     11.73783      8.31294        -0.617471     -0.459691     -0.072100
Pb       7.77999     11.72470     12.39521        -0.182306     -0.396403      0.357663
Pb      11.80850      3.77840      4.19343        -0.604079      0.182652     -0.181277
Pb      11.67921      3.97717      0.14379         0.334756     -0.389786      0.172653
Pb      11.63244     15.45938      4.07565         0.396508      0.659426      0.594737
Pb      11.64172     15.58109     16.51596         0.300341     -0.377789      0.893398
Pb      11.71992      4.01497      8.39710         0.208751     -0.225301      0.030346
Pb      11.75632      0.12362      8.34432         0.071154     -0.399968      0.238816
Pb      11.73215      3.86687     12.40569        -0.274864      0.006059      0.532929
Pb      11.49997      0.08261     12.39804         0.425623      0.081030      0.515002
Pb      11.75810      7.92371      4.24217        -0.649812     -0.724254     -0.187947
Pb      11.68280      7.80161     16.58941         0.033471     -0.325478      0.414521
Pb      11.70424      7.72390      8.37140        -0.401112      0.109872     -0.069545
Pb      11.58347      7.98071     12.49424         0.061501     -0.789605      0.621546
Pb      11.88532     11.53769      4.14072        -0.844590      0.491679      0.138762
Pb      11.55411     11.63168     16.53601         0.188190      0.315928      0.529559
Pb      11.72988     11.84476      8.49830         0.436452     -0.180003     -0.575571
Pb      11.61459     11.71775     12.44372         0.193553      0.067993      0.172610
Ti       1.98882      1.98063      2.26083        -0.146946     -0.705267     -0.075339
Ti       2.04324      1.98137     14.68956        -0.807654      0.225399     -0.175189
Ti       1.88622     13.66371      2.20153         0.762034     -0.328935     -0.362148
Ti       1.90649     13.63436     14.63057         0.193892      0.704482     -0.126876
Ti      13.70186      1.89345      2.30815        -0.276433     -0.055704      0.164515
Ti      13.74917      1.95852     14.63409        -1.082102     -0.644086      0.825767
Ti      13.64484     13.58043      2.12317        -0.571441      0.880917      1.074298
Ti      13.62563     13.59295     14.68708        -0.108607      0.792382     -0.812207
Ti       1.89925      1.83579      6.37512         0.138752      0.334446     -0.285449
Ti       1.91610     13.53258      6.20283         0.268875      0.199540      1.940534
Ti      13.63420      1.89189      6.42504         0.444521      0.819914     -0.258616
Ti      13.61136     13.61638      6.39967         0.180874     -0.222239      0.040587
Ti       1.96308      1.87583     10.61915        -0.266509      0.019475     -2.057041
Ti       1.90046     13.63236     10.51525         0.401534      0.857754     -0.926051
Ti      13.71728      1.99278     10.57877        -0.074081      0.233616     -0.503915
Ti      13.59792     13.78618     10.67019         0.839068     -0.933526     -0.459398
Ti       1.91295      5.86734      2.21628         0.070405     -0.051397      0.251251
Ti       1.92995      5.94781     14.58139         0.370676     -0.889129      1.565530
Ti      13.63845      5.85944      2.30221        -0.249643     -1.040723     -0.833174
Ti      13.63323      5.72119     14.68067        -0.360114      1.305915      1.417995
Ti       1.84476      5.74888      6.36146         0.284287      0.076470      0.954511
Ti      13.55461      5.86000      6.36121         0.835517     -0.671036      0.478651
Ti       1.88357      5.82814     10.58834         0.507750     -0.270604     -1.595495
Ti      13.58663      5.97933     10.68868        -0.628469     -1.322814     -0.308246
Ti       1.94174      9.70496      2.21153         0.145954      0.704242      0.536079
Ti       1.94720      9.79701     14.70847        -0.251176     -0.568210     -0.139065
Ti      13.67189      9.66491      2.20118         0.199232      0.499339     -1.607285
Ti      13.61139      9.68061     14.78096         0.451897      0.102917      0.527014
Ti       2.00638      9.62069      6.45631        -0.465341      0.370247     -0.576774
Ti      13.71151      9.73317      6.47098        -0.064702      0.300975     -0.162786
Ti       1.91598      9.76731     10.48246         0.263956     -0.065385      0.211510
Ti      13.66119      9.85340     10.61865         0.163015      0.422965     -0.052268
Ti       5.93591      1.92695      2.15388        -0.582367     -0.116368      0.914557
Ti       5.95000      1.82957     14.62453        -0.568703      1.210465      1.092279
Ti       5.93004     13.57457      2.28063        -0.202070      0.293773      0.524286
Ti       5.82505     13.54124     14.65384        -0.029063      0.272661     -0.220117
Ti       5.80527      1.79888      6.30627         0.680048      1.067715     -0.675001
Ti       5.89505     13.46292      6.37250        -0.519509      0.601783     -0.976859
Ti       5.78406      1.94267     10.51913         0.210681     -0.826893      0.184403
Ti       5.81507     13.63142     10.53911        -0.186106     -0.282021     -1.435417
Ti       5.82584      5.87958      2.22235         0.156257     -0.633388      0.282757
Ti       5.82773      5.79862     14.76216        -0.065182     -0.721886     -1.009046
Ti       5.75678      5.82850      6.26184         0.240606     -1.650716      0.539079
Ti       5.75766      5.71334     10.58853         0.482719      0.685059      0.460705
Ti       5.99242      9.72904      2.22797        -0.220936      0.595266      1.113877
Ti       5.79116      9.68447     14.63559         0.737509      0.375647      0.557302
Ti       5.89328      9.61156      6.33098         0.146108      1.251506      0.026728
Ti       5.87697      9.72602     10.52598        -0.433075     -0.049005     -0.496954
Ti       9.82549      1.91160      2.22835         0.084430      0.151495      0.900432
Ti       9.86150      1.93621     14.81555         0.274763     -0.063675     -0.530155
Ti       9.82887     13.57649      2.25574        -0.336252     -0.098414     -0.841164
Ti       9.70707     13.63752     14.61857         0.089323     -0.003963      1.699141
Ti       9.82701      1.97635      6.43918        -0.813335      0.341512     -1.579054
Ti       9.77217     13.64705      6.39187        -0.226878     -0.012904     -0.588549
Ti       9.71854      1.96634     10.53611         0.202285     -0.322933      1.766033
Ti       9.74430     13.62229     10.46745        -1.264523      0.382853      1.925135
Ti       9.76835      5.81571      2.25349        -0.148766     -0.113337      0.253637
Ti       9.80995      5.84165     14.80474        -0.468251     -0.260825      0.590952
Ti       9.69624      5.83114      6.34640         0.355395      0.355936     -1.190000
Ti       9.63575      5.84209     10.74928         0.228987     -0.134127     -0.314141
Ti       9.87043      9.65587      2.11300        -1.685985      0.627596     -0.541018
Ti       9.66726      9.69162     14.69240        -0.442227      0.238837      0.393715
Ti       9.89655      9.75843      6.45570        -1.085120      0.138674      0.194249
Ti       9.75511      9.73395     10.50527        -0.829468     -0.323445      0.320478
O       1.89994      2.00174      0.48768         0.019381     -0.217251     -0.722389
O       1.98272      1.88348     12.88097         0.013016      0.056059     -0.156931
O       1.94662     13.77126      0.41619         0.015158     -0.643696     -0.293907
O       1.86485     13.71335     12.83994         0.109384     -0.190880      0.169042
O      13.93373      2.01365      0.58123        -0.537362     -0.263212     -0.901626
O      13.71999      1.94428     12.88883        -0.030730      0.211313     -0.596906
O      13.66631     13.69094      0.38995         0.049023     -0.356383     -0.679771
O      13.71976     13.61876     12.86936        -0.219347     -0.061495      0.492911
O       1.95894      1.76044      4.59751         0.078928      0.543887     -0.299753
O       1.81829     13.45321      4.45312         0.211576      0.706908     -0.263245
O      13.55277      1.86238      4.64752         0.356315      0.156959      0.547053
O      13.64734     13.58777      4.64455        -0.013250     -0.018481      0.064115
O       1.94377      1.93758      8.81687         0.245308     -0.036699      0.425186
O       2.13156     13.67655      8.70892        -0.267679     -0.304002      0.799467
O      13.61495      1.96664      8.76532         0.041531     -0.315478      0.540419
O      13.50655     13.62216      8.89013        -0.108560      0.245298     -0.663182
O       1.84490      5.80936      0.46563         0.106404      0.236640     -0.469224
O       1.93019      6.00053     12.84092         0.033268     -0.125735     -0.654001
O      13.62374      5.72578      0.51526         0.665537      0.198013      0.688114
O      13.53123      5.85678     12.94154         0.513159     -0.094861     -0.705111
O       2.02748      5.74994      4.63376        -0.135901      0.285977     -0.586644
O      13.56130      5.95164      4.60707         0.012337     -0.128766     -0.211410
O       1.82408      5.60864      8.80585         0.128525      0.702526      0.649658
O      13.58633      5.90367      8.89596         0.181165      0.122231     -0.071300
O       1.95406      9.79314      0.46548         0.014242     -0.054114     -0.842156
O       1.91658      9.79496     12.94913         0.027224     -0.155037     -0.280524
O      13.71030      9.70834      0.39986        -0.000284     -0.157189      0.776323
O      13.83658      9.77883     13.05545        -0.752057     -0.362439     -1.351109
O       2.00170      9.64934      4.68122        -0.278301      0.004291     -0.140654
O      13.60191      9.74926      4.62825        -0.083518     -0.224179      0.519435
O       1.81579      9.88939      8.72080         0.362208     -0.236067      0.002039
O      13.67977      9.69513      8.85877        -0.097874      0.336299     -0.780810
O       5.86071      1.90245      0.39595         0.063358     -0.290499     -0.219650
O       5.79874      1.85146     12.86363         0.058461     -0.155837      0.364875
O       5.92047     13.42929      0.51838        -0.451759      0.258336     -0.695788
O       5.88775     13.59343     12.89614        -0.192653      0.185538      0.222803
O       5.89929      1.81347      4.48635        -0.315776      0.389383      0.737185
O       5.96864     13.56366      4.51413         0.073857      0.032265      0.934696
O       5.88469      1.92389      8.76657         0.032214      0.084463     -0.877838
O       5.94137     13.64873      8.64792        -0.522868     -0.259415      1.125028
O       5.76881      5.84132      0.41381         0.332563      0.067924      0.518951
O       5.75490      5.80292     13.01882        -0.072699      0.009749     -0.965671
O       5.80311      5.84743      4.49887        -0.206731      0.150558     -0.495758
O       5.83839      5.67929      8.87065         0.208910      0.075456     -1.021900
O       5.94614      9.86820      0.49474        -0.275249     -0.222746     -0.644643
O       5.74867      9.54975     12.89842         0.221338      0.643641     -0.576873
O       5.89624      9.58980      4.53273        -0.108970     -0.129993      1.214795
O       5.84255      9.71410      8.77580         0.198732     -0.062865     -0.343158
O       9.92162      1.72590      0.47645        -0.665344      0.450774     -0.944602
O       9.83521      1.95107     13.03823        -0.102601      0.022443     -0.274604
O       9.90795     13.80016      0.48655        -0.332587     -0.363848      0.039347
O       9.69105     13.45485     12.89487         0.077150      0.377645     -0.770134
O       9.89355      2.14487      4.63770        -0.321234     -0.554143      1.363376
O       9.72957     13.68024      4.58748         0.257205     -0.518876      0.728523
O       9.83352      1.97243      8.83141        -0.498482     -0.051270     -1.646717
O       9.59473     13.76547      8.76904         0.546460     -0.144550     -1.352417
O       9.59812      5.85514      0.43635         0.644239     -0.172733      0.470555
O       9.73750      5.63723     13.09049         0.181102      0.164148     -0.949376
O       9.83679      5.95342      4.55924        -0.125797     -0.425893      0.518592
O       9.65538      5.96601      9.00584         0.158377     -0.320740     -0.862916
O       9.79749      9.61173      0.31916         0.084777      0.311414      0.619021
O       9.68879      9.80268     12.90031         0.424999     -0.049977      0.248484
O       9.94045      9.84711      4.69301        -0.054406     -0.335606     -0.666354
O       9.77789      9.53509      8.75469         0.014712      0.096993      0.183554
O       3.93514      1.84882      2.53930        -0.280327      0.186935     -0.070966
O       3.87227      1.97516     15.00474         0.346618     -0.326539     -0.052491
O       3.91009     13.53010      2.49090         0.075014     -0.010287     -0.072657
O       3.87504     13.66026     14.98229         0.279612      0.001531      0.129948
O       0.01316      1.87589      2.63242         0.692228     -0.162758      0.275926
O       0.01066      1.96247     14.97457         0.320382      0.275762      0.030454
O      15.54906     13.64692      2.40586         0.275157     -0.069852      0.277390
O       0.02478     13.63095     14.91362        -0.422931     -0.499782      0.493312
O       3.89327      1.88994      6.68239         0.236630     -0.168185     -0.196523
O       3.92060     13.58200      6.58477        -0.006578      0.406246     -0.089555
O       0.02477      1.97309      6.78871        -1.033305     -0.396007     -0.431992
O       0.05111     13.60545      6.69398        -0.886594      0.145784     -0.025910
O       3.93848      1.94400     10.81602        -1.000117     -0.138369      0.521746
O       3.92602     13.57165     10.91600         0.069215      0.055893     -0.115753
O      15.59717      1.92736     10.81356         0.158617     -0.023419      0.495168
O      15.57977     13.64256     10.61066         0.039806      0.051597      0.918016
O       3.84688      5.86310      2.46971         0.938648      0.127150      0.060630
O       3.87850      5.72123     15.00978        -0.779366      0.831667      0.250092
O       0.04079      5.81645      2.69474        -0.630849      0.203059     -0.323286
O      15.59440      5.90199     14.84775        -0.019627     -0.109102      0.117529
O       3.85599      5.75920      6.80870         0.274820      0.684500     -0.493791
O      15.51524      5.83701      6.68568        -0.035526     -0.334251      0.036248
O       3.82604      5.91583     10.88238         0.316592     -0.537181     -0.144594
O      15.59755      5.84991     11.01669        -0.741207      0.241039     -0.232720
O       3.86152      9.76337      2.56723         0.231961     -0.196179     -0.442364
O       3.96834      9.72122     15.05033        -1.083172      0.117641      0.199327
O      15.54525      9.70624      2.61517         0.398849      0.026682     -0.325317
O      15.60391      9.67519     15.06123         0.677392      0.185557      0.143290
O       3.87599      9.64775      6.74669         0.611402     -0.227769      0.001157
O      15.57452      9.81208      6.71689        -0.475340     -0.382754     -0.060279
O       3.87635      9.72536     10.78762        -0.289923      0.420049      0.186136
O      15.57694      9.92465     10.93133         0.120471     -0.533129     -0.267117
O       7.82499      1.97325      2.49086        -0.141974     -0.127262     -0.057489
O       7.83942      1.87113     14.91369        -0.500841      0.140158      0.400911
O       7.95140     13.61270      2.46530        -1.467638     -0.237880      0.387977
O       7.75645     13.62750     15.01857         0.161847      0.291880     -0.199559
O       7.78393      1.91669      6.63050         0.678835      0.644075      0.495950
O       7.80057     13.51954      6.68609         0.722472      0.180974     -0.099155
O       7.74301      1.96312     10.87070         0.532799     -0.175956     -0.092106
O       7.78183     13.49120     10.93742         0.438547      0.823242     -0.478302
O       7.87070      5.72223      2.55991        -1.530432      0.450939     -0.062441
O       7.74808      5.88738     15.04628         0.712239     -0.528459      0.195004
O       7.82401      5.76406      6.58188        -0.906038      0.448367      0.490699
O       7.70816      5.79533     11.02188         0.155001     -0.297825     -0.116853
O       7.87675      9.65261      2.63532         0.208918      0.405614     -0.367641
O       7.79712      9.76298     15.04160        -0.056369     -0.453437     -0.430565
O       7.86891      9.76766      6.68027        -0.794050     -0.383208     -0.063086
O       7.80147      9.73373     10.86481         0.375079     -0.242957     -0.100673
O      11.72032      1.90849      2.56534         0.844363      0.284306     -0.056116
O      11.79866      1.76866     15.05680        -0.173894      0.879039     -0.393200
O      11.71130     13.67995      2.56694         0.994299     -0.449075      0.015939
O      11.70699     13.66096     14.93693         0.251024     -0.229291     -0.298053
O      11.71812      1.92985      6.85357        -0.154259      0.019070     -0.439898
O      11.66403     13.69240      6.74605         0.568779      0.051608      0.093744
O      11.64518      1.94736     10.92009        -0.144612     -0.407343     -0.164831
O      11.59258     13.63309     10.90650         0.064229      0.269518     -0.127415
O      11.74404      5.82810      2.53756         0.038019     -0.055431     -0.209713
O      11.71623      5.72619     15.25496        -0.499450      0.566566     -0.851347
O      11.68836      5.78857      6.80076        -0.121387      0.460385      0.013676
O      11.73286      5.84834     11.04718        -0.822102      0.355573     -0.483225
O      11.72318      9.66615      2.46629         0.729594     -0.085723      0.360359
O      11.70283      9.73203     15.04190        -0.152016      0.066077     -0.470279
O      11.73931      9.74137      6.74568         0.759367     -0.128452      0.351364
O      11.66280      9.67149     10.93907        -0.034477      0.240646     -0.225660
O       1.95825      3.86983      2.50587        -0.019432      0.021979      0.429851
O       1.87933      3.96177     14.80043         0.030527     -0.487939      0.165450
O       2.08527     15.56296      2.52803        -0.960710     -0.442517     -0.120245
O       1.87056     15.59590     14.85470         0.381451      0.421116      0.547472
O      13.77238      3.85463      2.69124        -0.569088      0.366421     -0.270384
O      13.54741      3.89995     15.10960         0.760014     -1.032165     -0.522282
O      13.63873     15.53319      2.65144         0.210862     -0.091903     -0.639276
O      13.80362     15.60176     14.94689        -0.126792     -0.364770     -0.024349
O       1.91904      3.81118      6.64215         0.080743      0.374654      0.123384
O       1.89783     15.55165      6.67596         0.234537     -0.393385     -0.134259
O      13.59315      3.86571      6.79886        -0.085766      0.305972     -0.538292
O      13.74579     15.60073      6.81977        -0.950572     -0.449427     -0.628530
O       1.92906      3.90389     10.94640        -0.029636     -0.081379      0.517636
O       2.08110     15.57995     10.83548        -0.425848      0.222519      0.457300
O      13.52822      3.89084     10.80787         0.676403      0.225896      0.449735
O      13.58706      0.03152     10.84640        -0.173554     -0.040938      0.291426
O       1.84935      7.81641      2.58359         0.307092     -0.473657     -0.253056
O       2.00439      7.87352     15.03561         0.015196     -1.154879     -0.073098
O      13.70815      7.79722      2.61944        -0.391302     -0.406548     -0.462614
O      13.60836      7.66816     15.18368         0.033639      0.688080     -0.851622
O       1.81134      7.72288      6.84443         0.484709      0.167842     -0.034327
O      13.60760      7.74285      6.85976         0.059111      0.879750     -0.557743
O       1.93264      7.88366     10.65056        -0.558590     -0.768928      0.438237
O      13.66278      7.88695     10.87443         0.249825     -0.570638      0.472093
O       1.82837     11.65916      2.53674         0.217877      0.081789     -0.377989
O       2.00937     11.70737     14.87858        -0.247933      0.085955      0.724822
O      13.64333     11.60236      2.51796        -0.096436      0.907955     -0.270763
O      13.69598     11.62179     15.07077        -0.176845      1.128186     -0.192577
O       1.98467     11.69205      6.70011        -0.109115     -0.185834     -0.082299
O      13.65354     11.73475      6.72215        -0.399716     -0.613057      0.222050
O       1.97769     11.77748     10.85702        -0.116094     -1.029164      0.129286
O      13.46395     11.72550     10.90413         0.239296     -0.289395      0.097439
O       5.75029      3.81477      2.47095         0.250564      1.062875      0.049276
O       5.83746      3.83353     15.14600         0.295845     -0.244523     -0.614549
O       5.92183     15.51017      2.55659        -0.126345     -0.022251     -0.590074
O       5.80427     15.57786     15.08680         0.118631     -0.221109     -0.502332
O       5.82502      3.88251      6.52650        -0.019699     -0.042374      0.392474
O       6.01532     15.55717      6.53174        -0.643058     -0.187436      0.453297
O       5.74616      3.79706     10.96034         0.258159      0.985501     -0.237859
O       5.81114     15.47921     10.84979         0.389322      1.249227      0.213754
O       5.91435      7.82215      2.44319        -0.241228     -1.416147     -0.016742
O       5.83849      7.73754     14.98935        -0.320921      0.690918      0.534410
O       5.85639      7.73098      6.67562        -0.005208     -0.125302      0.121704
O       5.84546      7.78802     10.85618        -0.066958     -0.617336      0.001852
O       5.94315     11.60901      2.79730        -0.146604      0.415122     -1.236781
O       5.81948     11.63672     14.94774         0.019587      0.635365     -0.037638
O       5.81534     11.60543      6.63964         0.147372     -0.178699     -0.074861
O       5.88779     11.69839     10.89917        -0.437479     -0.867252     -0.046716
O       9.80032      3.85044      2.63589         0.173431      0.568544     -0.659073
O       9.78598      3.82488     15.24460        -0.032457      0.022308     -0.420462
O       9.75687      0.08646      2.68685        -0.057814     -1.026834     -0.122075
O       9.74105     15.57544     15.04805        -0.049423     -0.457921     -0.504557
O       9.76421      3.97240      6.81374         0.095365     -1.209221      0.200816
O       9.71969      0.02541      6.66275         0.151549     -0.139252      0.162977
O       9.67715      3.86602     10.97185         0.370322     -0.164199     -0.424757
O       9.56922     15.58940     10.94820         0.820276      0.023341     -0.465405
O       9.75931      7.77726      2.46888         0.189110     -0.153847      0.536546
O       9.87074      7.77655     14.95755        -0.314056     -0.056144     -0.305972
O       9.76903      7.75783      6.66526         0.129560      0.288935      0.301654
O       9.67840      7.67375     11.13706         0.374575      1.424884     -0.404926
O       9.86368     11.61541      2.33784        -0.023043      0.308204      0.415415
O       9.73791     11.74967     15.11240         0.095350     -0.443665     -0.522886
O       9.83946     11.72180      6.93420        -0.016903      0.020550     -0.501974
O       9.74403     11.62622     10.63779         0.285271      0.331829      0.242423
