  # total energy = -7878.81580046 
CRSYTAL
PRIMVEC
    15.6080000000000005    0.0000000000000000    0.0000000000000000
     0.0000000000000000   15.6080000000000005    0.0000000000000000
     0.0000000000000000    0.0000000000000000   16.6239999999999988
PRESSURE
-0.275117 -0.775867 -0.561689 -0.123286 -0.283856 0.077721
PRIMCOORD
320 1
Pb       4.01054      3.99995      4.16515        -0.096060     -0.639515     -0.426527
Pb       4.08341      4.10559      0.14426        -0.411715     -1.093993      0.079037
Pb       3.86942      0.03500      4.01563         0.296810     -0.288356      0.148051
Pb       3.76935     15.57381     16.62075        -0.020336      0.030945     -0.349713
Pb       0.09681      3.83603      4.16577        -0.372931      0.053308     -0.452014
Pb      15.45572      3.81556      0.00237         0.936424      0.171843     -0.366570
Pb      15.54077     15.56312      4.00334         0.178660      0.147262     -0.151689
Pb      15.47037     15.55658     16.57358         1.204113      0.377009      0.167726
Pb       3.65351      3.78647      8.35113         0.512041     -0.051056     -0.178133
Pb       3.89071      0.07832      8.31821        -0.001029     -0.077611     -0.552693
Pb      15.55260      3.78257      8.27794        -0.080096      0.396633      0.079848
Pb       0.15074     15.57814      8.19994        -0.459308     -0.044489      0.260626
Pb       3.92314      3.94963     12.36403        -0.532556     -0.178778      0.612960
Pb       3.83660     15.39584     12.27029         0.176030      0.720671      0.735983
Pb      15.58618      3.75224     12.42369         0.119901      1.019524      0.606817
Pb      15.54332      0.31587     12.58932         0.265022     -0.673181      0.213818
Pb       3.80199      7.85441      4.34566         0.291340     -0.135418     -0.926712
Pb       3.81030      7.73819      0.01436        -0.047991      0.256334     -0.209247
Pb       0.25918      7.91263      4.24658        -0.883778     -0.689630     -0.183137
Pb       0.03399      7.73288      0.02806         0.155755      0.073611     -0.602866
Pb       4.09511      7.68390      8.07489        -0.649289      0.019950      0.933018
Pb      15.41073      7.75384      8.56891        -0.031319      0.243645     -0.168855
Pb       3.92166      7.89762     12.44372        -0.267510     -0.378505     -0.270898
Pb      15.60470      7.98134     12.60936        -0.335378     -1.059027     -0.664614
Pb       3.83115     11.66919      4.08527         0.265163      0.154925     -0.318764
Pb       3.93051     11.59844     16.43737        -0.493045      0.354522      0.474330
Pb      15.59250     11.65826      4.07022        -0.255234      0.324709     -0.167931
Pb      15.53667     11.83569     16.55726         0.298329     -0.349747      0.116980
Pb       3.83088     11.62284      8.05129        -0.073683      0.238624      0.636366
Pb      15.56346     11.61506      8.34193         0.161028      0.066738     -0.463892
Pb       4.06563     11.69401     12.29584        -0.609515     -0.384561      0.367669
Pb       0.20638     11.51210     12.28943        -0.244309      0.413107      0.414794
Pb       7.87181      3.73713      4.20630        -0.224859      0.236906     -0.520661
Pb       7.85884      4.01102      0.12876         0.109095     -0.245270     -0.499077
Pb       7.78975     15.42387      3.98554        -0.275378      0.614494     -0.001118
Pb       7.92219      0.18054      0.12051        -0.817148     -0.166954     -0.630364
Pb       7.56495      3.99082      8.34486         0.498419     -0.280280     -0.382070
Pb       7.87083     15.50522      8.35720         0.272261      0.144076     -0.411509
Pb       7.64172      3.79142     12.40023         0.603390     -0.109772      0.404423
Pb       7.64744     15.56399     12.57170         0.404929      0.047699     -0.551321
Pb       7.68969      7.86815      4.16258         0.428308     -0.341568      0.039632
Pb       7.86216      8.04196     16.59387        -0.117135     -1.002641     -0.148232
Pb       7.81024      7.76932      8.26762        -0.322066     -0.320843     -0.465722
Pb       7.85414      7.55393     12.32528         0.142965      0.304339      0.047924
Pb       8.01517     11.68310      4.34823        -0.762751     -0.230961     -0.713325
Pb       7.65238     11.66964      0.03826         0.318052      0.314953     -0.483038
Pb       7.59127     11.74218      8.07592         0.900341     -0.154951      0.494337
Pb       7.66776     11.46412     12.40651         0.496118      0.670537     -0.029168
Pb      11.77500      3.94823      4.37615         0.216724     -0.638838     -0.811383
Pb      11.84211      4.09696      0.12454        -1.048836     -0.380053     -0.258863
Pb      11.48639     15.47444      4.17174         0.712602      0.627610     -0.197595
Pb      11.55246     15.51896      0.11166         0.209457      0.144917     -0.579353
Pb      11.78139      4.10492      8.40034        -0.326534     -0.665588     -0.801089
Pb      11.62448      0.12367      8.24638         0.176060      0.006089     -0.347324
Pb      11.86805      3.81465     12.62784        -0.227943      0.381582     -0.114493
Pb      11.91875     15.52399     12.41495        -0.960460      0.280381     -0.024282
Pb      11.72571      7.41967      4.00218         0.002957      1.413144      0.537843
Pb      11.35200      7.77480      0.02596         0.797447      0.012296     -0.237335
Pb      11.51681      7.97328      8.20990         0.819264     -0.653328      0.218927
Pb      11.51985      7.87832     12.68476         0.348986     -0.049783     -0.803013
Pb      11.58739     11.27070      4.28608         0.461554      1.113204     -0.764765
Pb      11.81516     11.80309     16.50772        -0.324894     -0.493824      0.465705
Pb      12.08260     11.97238      8.41486        -1.063125     -0.368924     -0.351585
Pb      11.62829     11.88873     12.40666        -0.117386     -0.386173      0.171356
Ti       1.96369      1.86466      2.19617        -0.832807      0.811167     -1.491103
Ti       2.02629      1.99759     14.68193        -1.122540      0.063059      0.763491
Ti       1.93437     13.59216      2.19086        -0.194812      0.152960     -0.313870
Ti       1.99987     13.67330     14.42999        -0.388442      0.061524      2.199301
Ti      13.58006      1.94016      2.22834         0.268026      0.580419      0.702733
Ti      13.60480      1.91231     14.82413         0.134968      1.102990     -0.383695
Ti      13.56095     13.61572      2.33591         0.416611     -0.597645     -0.817360
Ti      13.70217     13.69210     14.58791        -0.378192     -1.101209      0.376977
Ti       1.95294      1.91645      6.33980        -0.100749     -0.288512     -0.657124
Ti       1.92444     13.54344      6.22301        -0.233903      1.498277      0.189433
Ti      13.69746      1.89001      6.28560        -1.475805     -0.023406      0.835692
Ti      13.75044     13.64809      6.23293        -0.937677      0.247904      0.978047
Ti       1.92663      1.91743     10.60579        -0.162591      0.130019     -1.229540
Ti       1.92195     13.64104     10.41112         0.016143     -0.956267     -0.680666
Ti      13.60302      1.98542     10.46741         0.187381     -0.012753      0.167130
Ti      13.81023     13.68141     10.47517        -1.304137      0.311923      0.369486
Ti       1.99475      5.79014      2.26212        -0.147555     -0.248338     -0.907833
Ti       1.93471      5.80214     14.66224        -0.852993     -0.424619     -1.120818
Ti      13.78024      5.87015      2.12259        -0.691945     -0.956185      0.754439
Ti      13.58396      5.90635     14.68237         0.651288     -0.743956     -0.611528
Ti       1.80811      5.83194      6.40295         0.270375     -0.055851     -0.539254
Ti      13.61127      5.91980      6.31634         0.338256     -0.903123     -0.083656
Ti       1.85758      5.79573     10.53531         0.077564      0.597408      0.800090
Ti      13.66034      5.87065     10.55337         0.176950      0.512261      1.140297
Ti       1.91874      9.72752      2.20008         0.476402      0.380613     -1.283821
Ti       1.95527      9.73444     14.63559        -0.094508     -0.031498      0.156649
Ti      13.67966      9.69161      2.28966        -0.945084      0.284825     -1.330441
Ti      13.64829      9.70466     14.69772        -0.368087      0.151874     -0.968203
Ti       1.83006      9.65430      6.46029        -0.206557      0.182078      0.318086
Ti      13.60737      9.71243      6.23200         0.653673      0.096848      1.857553
Ti       1.99423      9.66301     10.37770        -0.428438     -0.179183      0.086432
Ti      13.49669      9.77119     10.67631         0.588202     -0.853339      0.097537
Ti       5.82617      1.93676      2.16202         0.040877      0.505792      0.539603
Ti       5.82103      1.94478     14.70713         0.502848     -0.341729     -0.027319
Ti       5.85516     13.53781      2.20258        -0.474681     -0.000356     -0.765894
Ti       5.87140     13.67506     14.75456        -0.064791      0.039482      0.132131
Ti       5.88154      1.88385      6.30925        -0.766535      0.089105      0.544144
Ti       5.71053     13.61262      6.25798         0.838662      0.953432     -0.709749
Ti       5.78278      1.90633     10.53441         0.848528      0.336609     -1.115201
Ti       5.83440     13.58264     10.46904         1.177753      0.196346      1.357514
Ti       5.92246      5.89435      2.20471        -0.187916     -0.429193      1.043902
Ti       5.82711      5.79465     14.66132         0.671767     -0.322305      0.634164
Ti       5.75799      5.73265      6.22825         0.767911      0.053285      0.524788
Ti       5.80883      5.81540     10.49895        -0.015642      0.411990     -0.799141
Ti       5.83556      9.70600      2.30005        -0.215736      0.644030      0.007276
Ti       5.89012      9.60325     14.63848        -0.507597      1.188046     -0.368609
Ti       5.78692      9.65817      6.25867         1.246561      0.203553      1.620716
Ti       5.87705      9.61431     10.33285        -0.207079      0.071927      0.151111
Ti       9.74644      1.98307      2.18575         0.229245      0.769430      0.256619
Ti       9.75099      1.95151     14.64290        -0.604835      0.819716      0.622240
Ti       9.79192     13.52506      2.17609        -0.234513     -0.365240      0.182021
Ti       9.69182     13.64659     14.64945        -0.405240     -0.392628      0.181377
Ti       9.68684      2.00502      6.33263         0.880449     -0.440919      1.650538
Ti       9.80874     13.63164      6.38908         0.297858      0.482578      2.119082
Ti       9.77651      1.92806     10.55721        -1.014172     -0.620426     -0.380643
Ti       9.76184     13.68409     10.46791        -0.884611     -0.044369     -0.591521
Ti       9.75145      5.85435      2.29401        -0.899032     -1.018818     -1.310011
Ti       9.64664      5.77021     14.63875         0.126737     -0.266387     -0.036601
Ti       9.67885      5.80251      6.37754        -0.398541     -0.626271      0.000346
Ti       9.85011      5.63946     10.50978        -0.377249      1.472392      0.606032
Ti       9.74262      9.69320      2.16918         0.223236     -0.273787      0.611967
Ti       9.78252      9.85608     14.62843        -0.582030     -0.227912      1.232830
Ti       9.77878      9.80596      6.32838        -1.295194     -0.318246      0.309763
Ti       9.75991      9.75470     10.36742        -0.174821      0.371110      0.691169
O       1.84435      1.85145      0.35552         0.393056      0.031828      1.134437
O       1.83545      1.91569     12.87884         0.192715     -0.167152     -0.873347
O       1.98523     13.56114      0.43228        -0.294455      0.212749     -0.783642
O       1.94011     13.55072     12.69412         0.025246      0.326482     -0.219334
O      13.68909      2.11214      0.42900        -0.391350     -0.927545     -0.371703
O      13.70878      1.95454     12.96251        -0.185315     -0.167386      0.053216
O      13.44159     13.53377      0.51976         0.353807      0.590334     -0.726002
O      13.61429     13.64790     12.83609         0.153707      0.449110     -0.419518
O       1.84275      2.08846      4.53091         0.244791     -0.732202      0.740724
O       1.95944     13.67456      4.41825        -0.289505     -0.367965      1.011264
O      13.59897      1.73388      4.54723         0.406005      0.723821     -0.332751
O      13.71314     13.58887      4.46942         0.003843      0.198753     -0.091888
O       1.88647      1.99118      8.70266         0.155490     -0.155084      0.506725
O       1.96195     13.68072      8.61259        -0.043406     -0.419111      0.157503
O      13.52536      1.93016      8.72023         0.337912      0.197154     -0.097791
O      13.72922     13.69830      8.65661        -0.379469     -0.532176      0.651527
O       1.93350      6.00434      0.43049         0.051814     -0.311507      0.795300
O       2.03320      5.82973     12.81991         0.035814      0.151823      0.996691
O      13.68459      5.72766      0.30664        -0.149789      0.732402      0.556674
O      13.50620      5.72429     12.89129        -0.030801      0.156955      0.479957
O       1.76983      5.78826      4.54536         0.272296      0.407259      0.455403
O      13.58404      5.76592      4.50418        -0.224301      0.439639      0.962692
O       1.85933      5.58356      8.77626         0.104746      0.479810     -0.940063
O      13.65860      6.03152      8.76432        -0.183618     -0.700144     -0.936026
O       1.84338      9.71702      0.38806         0.358606     -0.250061      0.530644
O       1.77358      9.55203     12.80635         0.747222      0.501899      0.414253
O      13.49083      9.61289      0.51814         0.586242      0.371918     -0.539855
O      13.51824      9.64166     12.77973         0.617861      0.398243      1.817347
O       1.89252      9.63322      4.64118        -0.057234      0.382540     -0.442514
O      13.61870      9.85273      4.51708         0.365327     -0.351240     -1.253485
O       1.98420      9.75450      8.57650        -0.077156      0.268857      0.117627
O      13.61032      9.73130      8.90115        -0.337414      0.018435     -0.865617
O       5.86861      2.01057      0.41911        -0.245867     -0.089577     -0.896098
O       5.90299      1.92511     12.89449        -0.671688     -0.102348     -0.203879
O       5.87477     13.47335      0.34361        -0.354107      0.185767      1.465156
O       5.86597     13.51481     12.93958        -0.423660      0.252968     -0.845995
O       5.72176      1.99785      4.53001         0.271736     -0.306286      0.372282
O       5.72815     13.69480      4.47597         0.348843      0.098008      0.082283
O       5.69825      1.99098      8.68608         0.289478     -0.443273      1.043710
O       5.71225     13.52939      8.77856         0.141664      0.158103     -1.857338
O       5.96606      5.79641      0.42025        -0.709678      0.167863     -0.365124
O       5.88372      5.83969     12.89276        -0.478201     -0.011998     -0.245940
O       5.72588      5.85127      4.44784         0.074209     -0.367254      0.621642
O       5.93497      6.05265      8.65591        -0.563666     -0.872303      0.943059
O       5.86241      9.67186      0.52252         0.115156      0.208781     -0.721416
O       5.94029      9.66430     12.84160        -0.503514      0.108779      0.123572
O       5.75235      9.75412      4.55447         0.049486     -0.281250     -1.999381
O       5.83283      9.53624      8.52828        -0.018773      0.414851      0.840732
O       9.67665      2.06491      0.38001         0.255158     -0.802187      0.853339
O       9.67220      2.09524     12.87764         0.330399     -0.592909      0.391143
O       9.75191     13.67548      0.43703         0.324171     -0.237767     -0.550911
O       9.58091     13.64026     12.88904         0.464601     -0.195603     -0.014962
O       9.61334      1.87751      4.58241         0.135848      0.043162     -1.276130
O       9.77062     13.54040      4.64691        -0.451565      0.468039     -1.871831
O       9.75008      1.85087      8.74613        -0.100539     -0.009911      0.845221
O       9.75727     13.68518      8.61859        -0.150955      0.063911      1.052552
O       9.71772      5.81811      0.45254        -0.380514      0.255444      0.492778
O       9.57132      5.66488     12.80401         0.510234      0.580413      0.815185
O       9.82422      5.64298      4.59242        -0.255116      0.428823     -0.279673
O       9.66799      5.66240      8.72232         0.224734      0.550648     -0.184716
O       9.69937      9.62322      0.36525        -0.108394     -0.233487      0.100290
O       9.84365      9.88994     12.89289        -0.546685     -0.241803     -1.260478
O       9.70369      9.74188      4.50344         0.126785      0.230067      0.913191
O       9.84392      9.76807      8.57843        -0.214998     -0.364121      0.175585
O       3.86237      1.95252      2.47663        -0.248691     -0.013444      0.045091
O       3.81897      1.94168     15.02773         1.143767      0.106027     -0.067295
O       3.84369     13.59430      2.43505         1.123039     -0.107847      0.268314
O       3.84064     13.77698     14.95091        -0.331280     -0.458704     -0.368703
O      15.58793      1.81235      2.47219        -0.736069      0.144865      0.279938
O      15.57109      1.94676     15.01366        -0.802121     -0.170553      0.070822
O      15.58567     13.67931      2.36819        -0.531989      0.337826      0.548430
O      15.59809     13.56706     14.94163         0.003444      0.591357     -0.062458
O       3.79062      1.87160      6.66504        -0.084117      0.256477     -0.024275
O       3.83994     13.57174      6.52161        -0.282259     -0.139183      0.354439
O      15.54426      1.98357      6.76963         0.602350     -0.333774     -0.599373
O      15.58603     13.60429      6.61837         0.455970      0.062415     -0.193549
O       3.78794      1.95123     10.74678         1.100123     -0.416090      0.482067
O       3.82003     13.57837     10.76356         1.478798     -0.155001      0.279930
O       0.02662      1.81618     10.84366        -1.119170      0.204672     -0.139616
O      15.58173     13.44898     10.58972         0.493163      0.057484      0.540618
O       3.91806      5.80793      2.42850        -0.994860     -0.103589      0.073412
O       3.87883      5.63860     15.09992         0.525588      1.152534     -0.614419
O      15.55459      5.71145      2.40240         0.626319      0.718743      0.108805
O      15.53560      5.83298     14.87679         0.084192      0.465908      0.295389
O       3.84202      5.89152      6.50752        -0.146174      0.146748      0.278830
O      15.54265      5.93981      6.68239        -0.191205      0.119319     -0.021321
O       3.87880      5.66199     10.83621        -0.021790      0.771498     -0.447850
O       0.00221      5.85381     10.87441         0.024549     -0.171549     -0.053616
O       3.87420      9.81209      2.48598        -0.715209      0.095332      0.248782
O       3.88574      9.66409     14.93255        -0.672592      0.028799     -0.068867
O      15.58991      9.69945      2.54177         0.178416     -0.485112      0.261582
O       0.00989      9.72119     14.98350        -1.129171     -0.033247     -0.250319
O       3.92346      9.68527      6.54541        -1.059633     -0.004176      0.264132
O      15.51871      9.62858      6.75223         0.287872      0.276936     -0.391580
O       3.84167      9.65209     10.76485         1.031022      0.173835      0.065772
O      15.56348      9.69351     10.74511         0.055640      0.298376      0.246558
O       7.72866      1.89647      2.48087         1.099382     -0.029142      0.336160
O       7.75379      1.97996     14.98610         1.312268     -0.298497      0.138054
O       7.81359     13.51799      2.52283        -0.018878      0.470996      0.107680
O       7.69853     13.63559     14.98895         1.114780     -0.458796      0.190318
O       7.73118      2.00635      6.57723        -0.600635     -0.549891      0.280188
O       7.69484     13.62009      6.69208         0.040596      0.367669     -0.243358
O       7.73447      1.89063     10.91109        -0.199491      0.132557     -0.621999
O       7.77271     13.63701     10.76310        -0.994278     -0.005738     -0.273469
O       7.74010      5.89946      2.58295         0.032700      0.026559      0.071379
O       7.76176      5.76379     15.06400        -0.146687      0.306980     -0.493945
O       7.69681      5.76446      6.58800         0.516805     -0.295349      0.054266
O       7.67733      5.75631     10.76226         0.520041      0.276391      0.088089
O       7.86288      9.65185      2.57975        -1.451266     -0.231470     -0.142526
O       7.75145      9.82102     14.89289        -0.288582     -0.364671      0.485290
O       7.74532      9.76720      6.44738         0.916865      0.040092      0.619767
O       7.77505      9.60926     10.61039         0.260834      0.228833      0.198472
O      11.65669      1.98108      2.60480        -0.952881     -0.359515     -0.492360
O      11.71800      1.84548     14.99962        -0.678628     -0.308715     -0.101235
O      11.67107     13.44175      2.60937        -0.858662      0.524107     -0.056919
O      11.65394     13.49955     14.87475        -0.044173      0.980708      0.057534
O      11.64234      2.02005      6.61287         0.628302     -0.371580     -0.047980
O      11.73630     13.67995      6.63385         0.079908     -0.421967     -0.048231
O      11.69917      2.00842     10.89124         0.138110     -0.265765     -0.083172
O      11.65659     13.71903     10.80788         0.144860      0.075451     -0.012807
O      11.62092      5.74925      2.38710         0.994565      0.183743      0.428984
O      11.54748      5.96973     15.07102         0.914917      0.052831     -0.547955
O      11.56756      5.75971      6.68649         1.485926      0.103188      0.049427
O      11.78524      5.58622     10.80081        -1.673632     -0.050138     -0.310611
O      11.65083      9.59534      2.64259         0.291260      0.276298     -0.261386
O      11.63505      9.71510     14.92110         1.068582     -0.011113      0.161911
O      11.68499      9.80636      6.49612        -0.266549     -0.044344      0.277810
O      11.60179      9.63203     10.86822        -0.086327      0.130921     -0.330989
O       1.77165      3.89337      2.48825         0.904032      0.080001     -0.198516
O       1.80879      3.94242     14.94476         0.300092     -0.547766      0.108158
O       1.98173     15.59176      2.47372        -0.021097     -0.141673      0.149451
O       1.86294      0.05496     14.85905        -0.038161     -1.520034      0.099620
O      13.51939      3.85296      2.56865         0.563093      0.005013     -0.127630
O      13.51218      3.94185     15.04149         0.026933     -0.737282     -0.426362
O      13.43371     15.59349      2.50736         0.323924     -0.447782     -0.182990
O      13.65453     15.57374     15.01450        -0.207631     -0.320569      0.023497
O       1.90827      3.94874      6.64698        -0.234804     -0.606022      0.032323
O       1.84577     15.56002      6.61777         0.296173      0.477729     -0.341364
O      13.71466      3.94551      6.55316        -0.467442     -0.024444      0.385468
O      13.64245     15.57021      6.60149         0.302638      0.041406     -0.037103
O       1.85301      3.76436     10.87913         0.158383      0.763851     -0.072645
O       1.88678     15.44572     10.72345         0.191381      1.450907      0.447986
O      13.83821      3.87164     10.79857        -0.503833     -0.916690     -0.201101
O      13.64048      0.01848     10.87820         0.264682     -0.436626     -0.215298
O       1.97607      7.80966      2.62427        -0.246281     -0.413904     -0.093695
O       1.88944      7.76244     14.96967         0.379192      0.075008      0.129928
O      13.65218      7.71487      2.54029         0.009382     -0.083427     -0.066891
O      13.62241      7.82388     14.86662         0.042862      0.293464      0.261052
O       1.90736      7.82233      6.65776         0.147412     -1.106484     -0.058160
O      13.48184      7.83266      6.58505         0.085667     -0.430615      0.036703
O       1.87978      7.75716     10.58871         0.339840     -0.207500      0.342927
O      13.60222      7.68565     10.89641        -0.000048      1.225313      0.047093
O       1.76802     11.64649      2.52415         0.669056     -0.097889      0.104195
O       1.91137     11.66243     14.72461         0.386462      0.272514      0.346463
O      13.75779     11.66674      2.46339        -0.216377     -0.567297      0.385524
O      13.62908     11.72983     14.95665         0.162786     -0.824152      0.101167
O       1.88651     11.71063      6.60457         0.042116     -0.946723      0.004046
O      13.74287     11.64474      6.66800        -0.458411      0.373669      0.171080
O       1.98878     11.60170     10.73599        -0.272524      0.066913      0.099220
O      13.43669     11.76357     10.87055         0.555514     -0.467283     -0.711855
O       5.79352      3.89974      2.49219         0.177499      0.457738      0.054606
O       5.94411      3.80715     14.95007        -0.938793      1.685059      0.258177
O       5.86874      0.02374      2.37966        -0.299582     -1.468001      0.517502
O       5.90396      0.01195     14.99734        -0.477637     -0.395081      0.106889
O       5.65068      3.84592      6.66520         0.330713      0.418406     -0.283745
O       5.65738     15.56074      6.64509         0.546380      0.182936      0.044801
O       5.80117      3.87484     10.79559        -0.098487     -0.164350     -0.132759
O       5.76406      0.03032     10.79574        -0.236207     -1.455588     -0.000684
O       5.66277      7.86289      2.68666         0.692627     -0.894786     -0.410964
O       5.68762      7.77174     14.97414         0.567002     -0.839922     -0.022269
O       5.98306      7.70486      6.57046        -0.889767      0.481226     -0.403578
O       5.75776      7.77627     10.84973         0.019014     -0.327509     -0.239187
O       5.85969     11.67988      2.65997        -0.081065      0.074612     -0.503031
O       5.69046     11.63801     15.01424         0.645327     -0.176482     -0.401946
O       5.82473     11.67616      6.51217        -0.381040     -0.002048      0.392431
O       5.88425     11.55442     10.76969        -0.438212      0.490508     -0.219383
O       9.59234      3.88801      2.55757         0.031817     -0.776513     -0.117236
O       9.92893      3.91723     15.04984        -0.774414     -0.442922     -0.477225
O       9.73434     15.53856      2.35484         0.163433      0.091511      0.702832
O       9.59857     15.55967     15.07307         0.873069      0.347820     -0.336376
O       9.65097      3.81925      6.74466        -0.074492      0.848523     -0.304795
O       9.75439     15.58933      6.75066        -0.481748      0.064463     -0.562070
O       9.62939      3.85295     10.75711         0.087745     -0.833749      0.039014
O       9.62354     15.57551     10.84583         0.535931      0.399980     -0.075167
O       9.70192      7.69595      2.52660         0.144579      0.699807      0.194716
O       9.58431      7.82527     14.90235         0.315834     -0.155940     -0.040773
O       9.72398      7.72757      6.62084        -0.125831      0.815509      0.080085
O       9.72672      7.68887     10.84917         0.233012      0.336991     -0.335928
O       9.66110     11.52601      2.37226         0.328284      1.559779      0.523891
O       9.64013     11.67937     15.14252         0.122546      0.635530     -0.562420
O       9.66848     11.73224      6.55188        -0.040546     -1.094148      0.111484
O       9.76751     11.71310     10.68601        -0.083590     -0.886983      0.228704
