  # total energy = -7881.50093414 
CRSYTAL
PRIMVEC
    15.6080000000000005    0.0000000000000000    0.0000000000000000
     0.0000000000000000   15.6080000000000005    0.0000000000000000
     0.0000000000000000    0.0000000000000000   16.6239999999999988
PRESSURE
-0.230828 -0.228774 -0.609473 -0.131749 -0.202836 0.037952
PRIMCOORD
320 1
Pb       3.98115      3.97430      4.16668         0.128017     -0.354986     -0.439641
Pb       4.04723      4.07685      0.11690        -0.513195     -0.900111     -0.429646
Pb       3.88531      0.01911      4.03685        -0.272064     -0.006838      0.264097
Pb       3.78121     15.57203     16.61307         0.443802      0.453572     -0.382236
Pb       0.07916      3.84480      4.12253        -0.378708     -0.113394      0.493221
Pb      15.47307      3.83982      0.01153         0.642574     -0.202493     -0.514811
Pb      15.52939     15.58679      4.00133         0.287202     -0.143344      0.687810
Pb      15.50022     15.55716     16.59717         0.079624      0.141726     -0.350390
Pb       3.70358      3.82424      8.33691         0.645196      0.188253     -0.171681
Pb       3.89312      0.05659      8.33324         0.061002     -0.269641     -0.472269
Pb      15.56170      3.80870      8.26212        -0.076032     -0.175203      0.320726
Pb       0.12622     15.57012      8.19665        -0.518505      0.293758      0.595615
Pb       3.92377      3.95131     12.35911        -0.245451     -0.517254      0.660650
Pb       3.84231     15.42855     12.28572         0.253819      0.860275      0.846045
Pb      15.58393      3.76103     12.43009        -0.197911      0.800432      0.053693
Pb      15.53091      0.26116     12.55173         0.510837     -0.874510      0.124385
Pb       3.81716      7.83425      4.31867         0.475406     -0.001986     -0.566923
Pb       3.81655      7.74207      0.02069         0.263986      0.053706     -0.461533
Pb       0.21644      7.88152      4.20833        -1.052480     -0.393969      0.105664
Pb       0.02524      7.74456      0.02783        -0.174191     -0.112524     -0.265872
Pb       4.08040      7.71175      8.07036        -0.763952      0.112277      1.190674
Pb      15.44989      7.77389      8.49750         0.082497     -0.102310     -0.413229
Pb       3.91284      7.87267     12.45412         0.030775     -0.225364     -0.056773
Pb       0.00562      7.92145     12.57417        -0.086238     -0.419090     -0.565943
Pb       3.85540     11.67346      4.08751        -0.295289      0.162624      0.306329
Pb       3.91675     11.59443     16.44532         0.230704      0.420948      0.792876
Pb      15.58957     11.65128      4.09004         0.261601      0.402540      0.117175
Pb      15.55367     11.79575     16.55279         0.097987      0.008428      0.057032
Pb       3.82383     11.63588      8.10422         0.368456      0.102804      0.488552
Pb      15.55631     11.63033      8.33219         0.366932      0.196244      0.012356
Pb       4.03939     11.69650     12.33807        -0.471310     -0.187668     -0.173481
Pb       0.15733     11.53700     12.30928        -0.052094      0.716178      0.221703
Pb       7.87363      3.77830      4.19188        -0.838920      0.042350     -0.070831
Pb       7.87339      3.99978      0.10492        -0.745550     -0.540986     -0.151226
Pb       7.81351     15.46390      3.99268        -0.466504      0.370396      1.105620
Pb       7.90831      0.15403      0.08149        -0.458305     -0.481197     -0.119957
Pb       7.60942      3.98522      8.31260         0.328507     -0.876881      0.098498
Pb       7.84474     15.51350      8.35586        -0.238513      0.480856     -0.753362
Pb       7.67762      3.82771     12.39960         0.329681     -0.218669      0.164472
Pb       7.68511     15.56420     12.53982         0.135856      0.136454     -0.399314
Pb       7.71608      7.85771      4.17073         0.055882     -0.259728     -0.556623
Pb       7.88284      7.99448     16.60006        -0.711004     -0.523626      0.124743
Pb       7.79445      7.77296      8.26225         0.107791     -0.203875     -0.044515
Pb       7.88031      7.58908     12.30373        -0.671816      0.763564      1.219102
Pb       7.97749     11.67398      4.30944        -0.520616      0.215573     -0.537556
Pb       7.69804     11.66068      0.04585        -0.023399      0.058807     -0.569868
Pb       7.61812     11.73865      8.10466         0.449086      0.221856      0.608394
Pb       7.69887     11.50646     12.41074         0.187335      0.445142      0.134428
Pb      11.74516      3.95503      4.30577         0.097275     -0.371716     -0.311106
Pb      11.80321      4.07043      0.07927        -0.094679     -0.338554     -0.164496
Pb      11.48830     15.51220      4.13523         1.061127     -0.137168      0.128652
Pb      11.56503     15.54228      0.08846         0.683887      0.070292     -0.287724
Pb      11.78148      4.04474      8.33780        -0.457584     -0.443179      0.474164
Pb      11.64660      0.10252      8.23399         0.107718     -0.192449      0.273228
Pb      11.86112      3.82325     12.58554        -0.679812      0.487018     -0.837885
Pb      11.90854     15.53464     12.41813        -1.121152      0.224465      0.151822
Pb      11.71904      7.47578      4.01122        -0.289873      0.938451      0.666366
Pb      11.38238      7.77483      0.00212         1.301639     -0.170716     -0.030350
Pb      11.55794      7.94901      8.18611         0.489651     -0.476903      0.587531
Pb      11.57367      7.84516     12.62656        -0.063198     -0.407833     -0.295482
Pb      11.57229     11.35618      4.24781         0.836733      1.062598      0.128711
Pb      11.79453     11.77912     16.53379        -0.459722     -0.132770     -0.034881
Pb      12.03938     11.90776      8.35671        -1.636541     -0.488922      0.826677
Pb      11.64905     11.84591     12.41337        -0.222355     -0.110279     -0.167328
Ti       1.98828      2.07731      2.15424         0.506179     -1.686627      0.426702
Ti       1.94295      2.01738     14.64865         0.992998     -0.646742      0.483602
Ti       1.95791     13.70056      2.13269        -0.190632     -0.010574      0.647476
Ti       1.99606     13.63448     14.59674        -0.476573      0.960925      0.215077
Ti      13.64861      1.98417      2.33124        -0.464147     -1.402597     -0.013252
Ti      13.56562      1.94432     14.70962         0.618965     -1.027190     -0.243358
Ti      13.60736     13.58582      2.22449         0.020541      1.086478      0.359495
Ti      13.65553     13.62875     14.56100        -0.047429      0.720347      0.324280
Ti       1.94575      1.87589      6.26637        -0.057214     -0.416054      0.180214
Ti       1.89765     13.52024      6.43323         0.678750      0.288773     -1.081228
Ti      13.61218      1.93816      6.39325         0.194922     -0.090562     -0.407065
Ti      13.69022     13.69943      6.38355         0.030027     -0.057204      0.184867
Ti       1.91073      1.91466     10.57326         0.910521     -0.348387     -0.424939
Ti       1.91836     13.62881     10.44326         0.193735     -0.702980     -0.343925
Ti      13.62585      1.99813     10.46758        -0.728135      0.080977     -0.619878
Ti      13.70807     13.68037     10.57926         0.080314     -0.341346     -1.458329
Ti       1.86167      5.87707      2.21130         0.626421     -0.370098     -0.427557
Ti       1.96177      5.88483     14.52068         0.297362     -0.311961      1.169373
Ti      13.66518      5.81147      2.24973        -0.082886      0.185646     -0.286549
Ti      13.71811      5.82291     14.66072        -0.887986      0.583682      0.073885
Ti       1.79492      5.75703      6.47100         1.089359      0.262332     -0.618525
Ti      13.62248      5.84015      6.42622        -0.422505      0.964919     -0.582314
Ti       1.74701      5.81476     10.60156        -0.066990      0.515996     -0.053684
Ti      13.46548      6.01500     10.59424         0.330266     -1.172722      1.852489
Ti       1.95563      9.72168      2.14239         0.025893      0.569416      0.842754
Ti       1.88661      9.82552     14.72719         0.648544     -1.064517     -0.575281
Ti      13.63075      9.68739      2.17081         0.398273     -0.193114     -0.405510
Ti      13.63877      9.68501     14.76338        -0.040291     -0.283835     -0.178862
Ti       1.88106      9.58098      6.43027         0.559234      0.796681      0.456867
Ti      13.63116      9.76603      6.36620         0.079124     -0.723675     -0.499707
Ti       1.95659      9.65434     10.39492         0.559081      0.484681      0.051082
Ti      13.58008      9.78974     10.55256        -0.041232      0.022135     -0.680747
Ti       5.84993      1.87684      2.23322        -0.380901      0.810385      0.365179
Ti       5.81158      1.84512     14.80442        -1.326443      0.056255      0.127284
Ti       5.81141     13.56116      2.24013        -0.168754      0.161397      0.151029
Ti       5.80805     13.55354     14.58087         0.219932      1.034795      0.181032
Ti       5.77047      1.89587      6.28076         1.595862     -0.232661     -0.160032
Ti       5.82506     13.64104      6.20797        -0.192500      0.768080      0.975538
Ti       5.83503      1.92206     10.45308        -0.628742     -0.511346      0.805317
Ti       5.87591     13.61229     10.37980        -0.833697     -0.239890     -0.608781
Ti       5.75765      5.89029      2.18779         0.033577     -0.602588      0.312110
Ti       5.84541      5.82566     14.72602        -0.646332      0.036931     -0.806567
Ti       5.83598      5.70103      6.33438        -0.487422      0.449517      0.126390
Ti       5.66798      5.81238     10.46212        -0.220356      0.058030     -0.699616
Ti       5.84508      9.75979      2.25831         0.096236     -0.757400     -0.152225
Ti       5.84007      9.67710     14.64455        -0.239581     -0.411416     -0.171473
Ti       5.92116      9.68220      6.30295        -1.620595     -0.390248     -0.825730
Ti       5.82969      9.65853     10.37744        -0.262818      0.322411      0.147967
Ti       9.77469      1.91830      2.31384        -0.360161      0.036028     -1.102734
Ti       9.78280      1.91388     14.72927        -0.096872     -0.280050     -0.688038
Ti       9.73005     13.54221      2.19274         0.651984      0.229420     -0.076869
Ti       9.68399     13.63508     14.69761         0.145753     -0.247696     -0.687496
Ti       9.65558      2.06275      6.47534        -0.805551     -1.006316      0.199207
Ti       9.77529     13.66306      6.37927        -0.437420      0.214149     -0.569792
Ti       9.76777      1.88271     10.56974        -0.247316      0.391546      0.001460
Ti       9.65477     13.70246     10.58434         0.786233     -0.164847     -0.234776
Ti       9.59624      5.77620      2.19413         0.174772      0.842605      0.146013
Ti       9.69572      5.66507     14.79454         0.568482      1.911028     -1.048607
Ti       9.70661      5.78964      6.39760         0.056419      0.433599     -0.512285
Ti       9.63022      5.77222     10.57812         1.846539     -0.487305     -0.124409
Ti       9.85098      9.73732      2.21250        -2.075752     -1.156252     -0.590240
Ti       9.77093      9.77955     14.67589        -0.665342      0.070797     -0.383837
Ti       9.71711      9.77362      6.40920         0.799425      0.065945     -0.114612
Ti       9.73467      9.79521     10.53811        -0.025022     -0.060646      0.258776
O       1.94051      2.13403      0.39052        -0.403447     -0.335825     -0.013972
O       1.96807      1.83065     12.85287        -0.622985     -0.078840     -0.560944
O       2.07346     13.63370      0.36719        -0.307707     -0.194919      0.307678
O       1.87386     13.63619     12.83569         0.123034     -0.242440     -0.390490
O      13.74917      1.88854      0.52712        -0.324467      0.444100     -0.561165
O      13.67263      1.97382     12.86122        -0.217862     -0.116847      0.141535
O      13.67658     13.84108      0.44920        -0.305452     -0.816678      0.019617
O      13.62739     13.62338     12.76179         0.153302     -0.287798      0.130468
O       1.94481      1.85205      4.50603        -0.012465      0.510386      0.281713
O       1.77331     13.52035      4.66441         0.092294      0.032717     -0.144219
O      13.65089      1.98106      4.60447        -0.430775      0.115819      0.760778
O      13.86018     13.59619      4.64481        -0.300369     -0.111783     -0.360068
O       1.99045      1.81040      8.75297        -0.032748      0.479766      0.502373
O       2.02409     13.51042      8.63314         0.110831      0.623847      0.407451
O      13.57700      1.94117      8.66920         0.164112     -0.033193      0.206675
O      13.50308     13.66096      8.70602         0.555131      0.244993      0.574996
O       1.80296      5.86748      0.41154         0.104471     -0.243882      0.638974
O       2.06691      5.99978     12.77113        -0.246886     -0.309844     -0.171441
O      13.72958      5.63628      0.43683         0.157338     -0.167994      0.588893
O      13.41278      5.84676     12.90610         0.351573     -0.123050      0.093771
O       1.94709      5.86691      4.68563        -0.297382     -0.220427      0.022805
O      13.48304      5.90226      4.63094         0.236438     -0.532253      0.089957
O       1.57076      5.76955      8.84220         0.173829     -0.147014     -0.877166
O      13.55449      5.90535      8.86366         0.394996      0.127552     -1.863454
O       1.96638      9.67544      0.38830        -0.080510      0.130131     -0.063270
O       1.88172      9.80875     12.88987        -0.247579     -0.231456      0.480421
O      13.51759      9.74830      0.40048         0.492503     -0.072663      0.367718
O      13.73670      9.71841     12.95453        -0.181700      0.039178      0.430367
O       1.94481      9.60221      4.62321        -0.244476     -0.143977     -0.235762
O      13.57005      9.70120      4.55220        -0.101524      0.277229      0.321531
O       1.94835      9.67162      8.61550        -0.227701     -0.225529      0.391591
O      13.56944      9.75861      8.73259         0.437969     -0.169330      0.175861
O       5.82797      1.83186      0.46477         0.223392      0.112334     -0.492112
O       5.75205      1.81357     13.03058         0.723968      0.273975     -0.357016
O       5.62611     13.38645      0.49091         0.554056      0.258061     -0.132148
O       5.74380     13.56468     12.77579         0.743856      0.205667      0.393909
O       5.80892      2.02296      4.48900         0.072878     -0.205267      0.323767
O       5.90762     13.68802      4.44551        -0.011039     -0.556515      0.331632
O       5.78249      1.94299      8.71239        -0.159773     -0.009075     -0.317786
O       5.80135     13.55412      8.52903         0.453421     -0.088698      1.038830
O       5.62892      5.89493      0.39213         0.468935     -0.396127     -0.530019
O       5.64129      5.85308     12.88591         0.515077     -0.252398      0.379878
O       5.75732      5.80354      4.55242        -0.000891      0.021840     -0.313168
O       5.80671      5.71618      8.63484         0.407182      0.316932      0.782097
O       5.86745      9.81001      0.43535        -0.035713      0.016294     -0.130133
O       5.71099      9.65880     12.85688         0.410092      0.290407     -0.031841
O       5.84172      9.46934      4.48088         0.081243      0.436338      0.313451
O       5.84598      9.68238      8.57970         0.335402     -0.029397      0.303171
O       9.88063      1.73234      0.51248        -0.720866      0.364111      0.063791
O       9.75918      2.00842     12.94889        -0.262482     -0.141138      0.590094
O       9.95101     13.62507      0.40290        -0.681679      0.026370      0.386957
O       9.70857     13.53704     12.88670        -0.137400      0.288353      0.549916
O       9.57663      2.12364      4.68977         0.469388     -0.079292     -0.977983
O       9.68919     13.55083      4.55392         0.284152     -0.176750     -0.068110
O       9.52036      1.71455      8.78058         0.792470      0.159727      0.232628
O       9.63593     13.73121      8.77613         0.031023      0.120408     -0.053107
O       9.62181      5.87232      0.37117         0.630384     -0.210403      0.549018
O       9.67799      5.78963     13.01440         0.108512     -0.270148     -0.426702
O       9.71983      5.70544      4.58756         0.164753     -0.097691     -0.185281
O       9.58468      5.93973      8.82178         0.186633     -0.120742     -0.568030
O       9.65920      9.66114      0.39837         0.118578      0.223516      0.165192
O       9.76585      9.77613     12.88121        -0.020573      0.038697     -0.056713
O       9.80215      9.82096      4.56695        -0.467433     -0.331959      0.147717
O       9.62298      9.59382      8.76939         0.061467      0.050517     -0.130750
O       3.91731      2.04135      2.52266        -1.009719     -0.281668     -0.125318
O       3.89072      1.91028     15.09172        -0.674174      0.090427      0.012877
O       3.89646     13.62527      2.66649        -0.583772     -0.408167     -0.364737
O       3.92861     13.44103     14.78468        -0.859229     -0.076509      0.383165
O      15.50403      1.94813      2.61029         1.403675     -0.055648     -0.340308
O      15.59377      1.91464     14.90473        -0.403074     -0.083145      0.340685
O      15.59753     13.84257      2.42327         0.467039     -0.898033     -0.222215
O      15.54201     13.72128     14.97470         0.332334     -0.673058      0.141365
O       3.94294      1.86873      6.65060        -1.537932     -0.029559      0.177285
O       3.90586     13.48045      6.51618         0.062644      0.350662      0.020492
O      15.60465      1.96498      6.61412        -0.281511     -0.033344      0.215707
O       0.01202     13.60666      6.83011        -0.639193     -0.100022     -0.076836
O       3.89405      1.88619     10.89951        -0.343258      0.265994     -0.530901
O       3.89668     13.59680     10.78258        -0.252557     -0.005948     -0.285220
O      15.51820      1.90965     10.76369         0.886194      0.130044      0.410977
O       0.05145     13.57860     10.61866        -0.857724      0.134147      0.291404
O       3.76122      5.74446      2.48427         0.217847      0.158578      0.033547
O       3.84201      5.92636     14.99024         0.299901     -0.582668      0.244995
O      15.51303      5.97683      2.66521         0.675431     -0.841794     -0.302478
O       0.02349      5.86873     14.84966         0.111283     -0.416430     -0.013809
O       3.87598      5.79143      6.81063        -0.576951     -0.297749     -0.599560
O      15.49395      5.75781      6.66192         0.431371     -0.285854      0.251084
O       3.77785      5.83360     10.62179         0.465892     -0.219408      0.335721
O      15.43852      5.84936     11.09996         0.725088      0.090049     -0.474259
O       3.82887      9.77592      2.53335         0.006566     -0.392340     -0.047651
O       3.85430      9.76740     14.92494         0.199065     -0.086349      0.145510
O      15.55866      9.51694      2.46120         0.107175      0.582546     -0.002797
O      15.57899      9.69175     15.14638         0.091594      0.030799     -0.430264
O       3.88700      9.56152      6.53833        -0.307499      0.141146      0.128003
O      15.57071      9.83733      6.59937        -0.323587     -0.657701      0.207602
O       3.95074      9.72427     10.72652        -0.886446     -0.245271      0.075332
O      15.60406      9.78309     10.74037        -0.105605     -0.392804      0.098963
O       7.75722      1.77806      2.49183         0.480739      0.356882      0.027383
O       7.80911      1.84825     15.11171         0.175273      0.171470     -0.211760
O       7.81194     13.67212      2.42065        -0.133519     -0.438054     -0.225835
O       7.78563     13.67511     15.04129        -0.070066      0.120449     -0.173795
O       7.70258      1.98500      6.72812         0.345762      0.383567     -0.027797
O       7.82579     13.50782      6.48566        -0.802305     -0.147462      0.630332
O       7.69238      2.01749     10.85740         0.405668     -0.647423      0.363356
O       7.72117     13.71432     10.81249         0.364824     -0.275175      0.074838
O       7.74923      5.90213      2.32075        -0.083095     -0.126706      0.572284
O       7.80795      5.76334     15.01678        -1.053262     -0.040102      0.112326
O       7.79227      5.65261      6.60061        -0.768138      0.740740      0.175932
O       7.75351      5.75401     10.84773        -0.526188     -0.156955      0.126220
O       7.71853      9.59229      2.54631         0.824647      0.129260     -0.005065
O       7.77183      9.71144     14.98393         0.315179      0.288935     -0.129903
O       7.77727      9.66260      6.62921         0.594943      0.051254     -0.196193
O       7.71843      9.73048     10.87939         0.630129     -0.493679     -0.377026
O      11.60716      1.87855      2.61354         0.589724      0.599517      0.361442
O      11.70502      1.92398     15.03691         0.104133      0.256317     -0.078498
O      11.67375     13.62414      2.55388         0.153815     -0.262428      0.039032
O      11.73129     13.67914     14.91916         0.209838     -0.833691      0.059083
O      11.58513      2.06229      6.74189         0.639105     -0.627961     -0.136426
O      11.66546     13.59750      6.65662         0.277676      0.459172     -0.228431
O      11.71845      1.79407     10.78396        -0.377893      0.094992      0.018917
O      11.64627     13.68346     10.82015        -0.125694     -0.280800      0.308753
O      11.67774      5.64208      2.51547        -0.482457     -0.037876     -0.158500
O      11.74342      5.84534     15.11376        -0.821390     -0.460645      0.155545
O      11.69050      5.83305      6.69311        -0.697270      0.082017      0.278654
O      11.59382      5.77637     10.88707         0.288563      0.319647      0.016131
O      11.64097      9.79185      2.38978         1.351602      0.127597      0.554558
O      11.66180      9.74282     15.01989         0.735613     -0.082044     -0.166872
O      11.66387      9.76450      6.69915        -0.122842     -0.143858     -0.300713
O      11.72039      9.76847     10.77514        -1.330396     -0.059705      0.431946
O       1.87876      3.87143      2.55721        -0.630854      1.214822      0.095886
O       1.90489      3.83087     14.62071         0.046628      1.645141      0.572049
O       2.05702      0.04014      2.44280        -0.294506     -0.457193     -0.223982
O       1.97046     15.50671     14.97577         0.130050      0.075618      0.079596
O      13.68809      3.84077      2.69427        -0.280181      0.783481     -0.395783
O      13.56988      3.85039     14.91933         0.458800      0.117855      0.491712
O      13.57163     15.55986      2.70568        -0.260798      0.283061     -0.333997
O      13.61789     15.58004     14.82250         0.250710      0.228741      0.256907
O       1.93441      3.77439      6.74246        -0.095656      0.625476     -0.109561
O       1.93288     15.56457      6.70547         0.273580     -0.074277     -0.168941
O      13.52780      3.91387      6.76610         0.519373     -0.053146     -0.272971
O      13.65979      0.01951      6.67877        -0.309993      0.013269     -0.107303
O       1.84748      3.87651     10.82015         0.009387     -0.322221      0.318817
O       1.92629      0.02062     10.81105        -0.121003     -1.065796     -0.249511
O      13.55212      3.86741     10.74738         0.140235     -0.162602      0.472704
O      13.66592     15.51853     10.80701         0.218395      1.022539      0.276817
O       1.92658      7.74918      2.55787         0.266305      0.508410     -0.168477
O       2.05345      7.76581     15.00259        -1.068581      0.703140     -0.273658
O      13.45600      7.68863      2.40172         0.026172      0.732526      0.039535
O      13.73010      7.66404     15.13424        -0.401012      1.546555     -0.525320
O       1.84764      7.60560      6.79167        -0.217363      1.484223     -0.205205
O      13.66967      7.83410      6.76683        -0.093718     -0.187956     -0.098116
O       1.86749      7.78919     10.80473        -0.185718      0.519546     -0.031472
O      13.61864      7.85327     10.94130         0.027926      0.189808     -0.246151
O       1.91467     11.70687      2.54357        -0.451925     -0.543625     -0.361017
O       1.86920     11.68766     15.00992        -0.376168     -0.019972     -0.014140
O      13.76768     11.65647      2.46747        -0.232277      0.078192     -0.151618
O      13.70438     11.65711     15.05809        -0.255859      0.385468     -0.308640
O       1.92232     11.53738      6.72165         0.039220      0.575271     -0.292347
O      13.61169     11.74150      6.73508         0.448600     -0.653518     -0.487768
O       1.89258     11.66481     10.67330         0.421346     -0.290103      0.432425
O      13.56171     11.73096     10.65680         0.282716     -0.531492      0.794280
O       5.77754      3.89020      2.49024         0.461508      0.186515     -0.219695
O       5.70586      3.89320     15.08272         0.866335      0.184061     -0.207344
O       5.73672     15.55242      2.57742         0.352543     -0.189343     -0.581437
O       5.62132     15.49518     15.05675         1.058961     -0.302453     -0.227249
O       5.72862      3.85190      6.62803         0.177468     -0.005631      0.052331
O       5.94114     15.57813      6.54476        -0.572734     -0.718956      0.104521
O       5.73014      3.87856     10.81085         0.363511      0.000503      0.113297
O       5.80907     15.50446     10.61855         0.013888      0.832964      0.451732
O       5.74063      7.69968      2.36406        -0.190685      0.957008      0.785835
O       5.88064      7.77763     14.90823        -0.258999      0.003578      0.494213
O       5.84215      7.74981      6.51719         0.440244     -0.905900      0.678940
O       5.83044      7.69412     10.65569         0.155689      0.630187      0.265779
O       5.89442     11.59192      2.63273        -0.192019      1.014296     -0.004049
O       5.94023     11.64628     14.88276        -0.129208      0.076530      0.264903
O       5.81639     11.55733      6.47412         0.324235      0.735316      0.022582
O       5.81217     11.65135     10.71950         0.412596     -0.159118      0.066603
O       9.50439      3.85071      2.40324         0.483376      0.149205     -0.001551
O       9.74645      3.85850     15.15415         0.126462     -0.897606      0.147908
O       9.73125     15.54387      2.59704         0.164748     -0.215394     -0.178352
O       9.85915     15.57868     15.01402        -0.668585     -0.003735     -0.019484
O       9.68355      3.93595      6.83971         0.340676     -0.270363      0.106138
O       9.64975     15.59768      6.52801         0.372988     -0.347781      0.534892
O       9.79080      3.76789     10.83865        -0.453738      0.856462     -0.052410
O       9.72312     15.60170     11.04156        -0.614106     -0.270887     -0.242523
O       9.80129      7.78379      2.52366        -0.056406     -0.647525     -0.142082
O       9.79659      7.78560     14.95056        -0.405382      0.218366      0.097746
O       9.67803      7.73130      6.61564        -0.072795      0.422367      0.283594
O       9.79512      7.75190     11.01132        -0.417325      0.326209     -0.536393
O       9.69248     11.61491      2.50690        -0.214784      0.724588      0.027905
O       9.72723     11.69004     15.00119         0.172626     -0.006299      0.243429
O       9.70189     11.62605      6.61721        -0.203194      0.060183      0.139090
O       9.65289     11.70567     10.87218         0.159441     -0.441418     -0.249590
