  # total energy = -7883.45801454 
CRSYTAL
PRIMVEC
    15.6080000000000005    0.0000000000000000    0.0000000000000000
     0.0000000000000000   15.6080000000000005    0.0000000000000000
     0.0000000000000000    0.0000000000000000   16.6239999999999988
PRESSURE
0.139152 -0.017039 1.3942 0.106508 0.056813 -0.052112
PRIMCOORD
320 1
Pb       3.84479      3.80735      4.10299        -0.395339     -0.178886      0.463011
Pb       3.87827      3.86336     16.54424         0.315003     -0.087888      0.289202
Pb       3.91217     15.51589      4.07607        -0.186258     -0.042429      0.833898
Pb       3.96261     15.57885     16.53036        -0.011057      0.300826      0.582419
Pb       0.02345      3.93154      4.09685         0.312610     -0.190777      0.470615
Pb       0.03323      3.85691     16.60855        -0.859330      0.081239      0.042588
Pb       0.01123     15.51015      4.13879         0.175321      0.095556      0.335791
Pb      15.60226      0.00032     16.54214        -0.221352     -0.168636      0.695822
Pb       3.97480      3.86951      8.18849        -0.941834     -0.093110      0.646055
Pb       3.86999     15.43072      8.16408        -0.176786      0.831144      0.466908
Pb      15.56083      3.90670      8.26976         0.065416     -0.476143      0.238712
Pb      15.50015     15.51476      8.30204         0.581737      0.683052     -0.409949
Pb       3.84341      3.80185     12.44680        -0.011519     -0.047453     -0.438358
Pb       3.93960      0.06362     12.53988        -0.032635      0.096417     -0.509915
Pb       0.01916      4.04562     12.55473        -0.103210     -0.165969     -0.512397
Pb       0.06814     15.55616     12.48294        -0.319353      0.339616     -0.617607
Pb       3.94009      7.78503      3.97041        -0.514555      0.155962      0.857807
Pb       3.91352      7.81101     16.56397        -0.173177      0.137087      0.160619
Pb      15.44310      7.77345      4.09438         0.410142      0.011207      0.054206
Pb      15.59477      7.71573     16.55201        -0.411308      0.891139      0.541327
Pb       3.74865      7.77211      8.30197         0.712426      0.100482     -0.003205
Pb      15.50473      7.70496      8.36042        -0.367625      0.153673      0.121284
Pb       3.90157      7.73749     12.34958        -0.247307     -0.025071      0.382053
Pb      15.54733      7.76599     12.39655         0.133105     -0.190647      0.430009
Pb       3.88017     11.68246      4.08783         0.237194     -0.014343      0.875532
Pb       3.83264     11.74686      0.04498         0.043344     -0.355799     -0.576565
Pb      15.56747     11.61919      4.07792         0.083890      0.016033      0.041410
Pb      15.58079     11.61416     16.53709        -0.180491     -0.068426      0.003016
Pb       3.89423     11.75442      8.40104         0.063477     -0.555219     -0.321236
Pb       0.07237     11.73016      8.26030        -0.106217     -0.029783      0.299989
Pb       3.80739     11.64213     12.42266         0.226855      0.082166      0.282019
Pb      15.54590     11.80297     12.51361         0.352455     -0.049265     -0.343911
Pb       7.80618      3.88041      4.08633         0.636347     -0.478219      0.398592
Pb       7.82517      3.87430     16.57375         0.103031      0.193059      0.821663
Pb       7.82698      0.00860      4.18729        -0.027493     -0.114162     -0.276689
Pb       7.77199      0.00090     16.52687         0.638358      0.405731      0.763509
Pb       7.86781      3.78748      8.26061        -0.084100      0.794970      0.561757
Pb       7.74505      0.02709      8.13578         0.033919     -0.211609      0.791084
Pb       7.86572      3.83220     12.48667        -0.298271      0.005955     -0.308908
Pb       7.75602     15.57685     12.32310        -0.429071     -0.044208      0.706421
Pb       7.92590      7.78048      4.14953        -0.590475      0.348755      0.672140
Pb       7.63608      7.61904      0.01816         0.253202      0.267762     -0.117414
Pb       7.76470      7.72811      8.21102        -0.028557     -0.122992      0.107955
Pb       7.64715      7.89028     12.43391         0.419112     -0.222988      1.004567
Pb       7.80808     11.66386      4.10149        -0.137625      0.297484      0.675853
Pb       7.77291     11.77948     16.57011         0.115258     -0.314818      0.300927
Pb       7.94664     11.68516      8.36822        -0.918889      0.046746     -0.226769
Pb       7.78944     11.80318     12.42433        -0.297889     -0.429834      0.336233
Pb      11.70661      3.79562      4.08167        -0.045800      0.312822     -0.012086
Pb      11.65087      3.86708      0.09345         0.057810     -0.211729     -0.153020
Pb      11.71565     15.51414      4.09937        -0.040526      0.355692     -0.125176
Pb      11.72023     15.59566     16.50736        -0.758997      0.231473      0.536884
Pb      11.69151      3.91265      8.31948         0.049095      0.065994     -0.005132
Pb      11.80600      0.03496      8.36244        -0.183571      0.078599      0.000561
Pb      11.66026      3.90734     12.33403        -0.074068      0.097009      0.866539
Pb      11.47924      0.09451     12.42532         1.238448     -0.503774      1.056164
Pb      11.70149      8.00724      4.25363         0.357563     -0.182411     -0.378938
Pb      11.77259      7.77040     16.58666        -0.469375      0.302423      0.052237
Pb      11.70919      7.66805      8.38376         0.087774      0.537381     -0.085457
Pb      11.69789      7.89485     12.43826        -0.430886     -0.040200      1.211912
Pb      11.83939     11.72639      4.09784        -0.360279     -0.311630     -0.047753
Pb      11.52247     11.61272     16.58821         0.206394      0.282890      0.260377
Pb      11.62735     11.75320      8.41592         0.313126     -0.221252     -0.139425
Pb      11.66751     11.62695     12.48832        -0.425116      0.185814      0.158301
Ti       1.94397      1.77760      2.20254        -0.255792      0.723448      1.675639
Ti       1.88391      1.92368     14.69975         0.881786     -0.522699      0.119505
Ti       1.94568     13.54331      2.16546        -0.283808      0.848990      1.161327
Ti       1.92015     13.67834     14.76125         0.262637     -0.626876     -0.351859
Ti      13.73509      1.91968      2.20468        -0.735992     -0.132857     -0.779981
Ti      13.66585      1.92832     14.71752        -0.706512      1.039901      1.104618
Ti      13.64761     13.69652      2.12360         0.200696     -0.577933      1.038825
Ti      13.63488     13.68574     14.64412        -0.364392     -0.406485      0.364665
Ti       1.91901      2.02489      6.34708        -0.099142     -0.962704      0.351385
Ti       1.96381     13.59902      6.38388        -0.034364      1.018035     -0.001237
Ti      13.61964      1.97964      6.37550         1.059448     -0.473619     -0.307160
Ti      13.56627     13.63661      6.40591         0.735752      0.180575      0.143031
Ti       1.82956      1.97842     10.40711         0.450448     -0.236492      0.285167
Ti       1.94775     13.69651     10.53768        -0.053599     -0.211765     -0.441036
Ti      13.63981      1.94510     10.60682         1.117753     -0.299516     -0.696668
Ti      13.57903     13.67377     10.57477        -0.168351      0.880010      1.125616
Ti       1.98438      5.78824      2.17239        -1.228102      0.328864      1.141772
Ti       1.82097      5.83010     14.85137         0.538793      1.051057     -1.464420
Ti      13.65959      5.76098      2.20757        -0.019323      1.536342     -0.671445
Ti      13.53514      5.86490     14.77274         0.477408     -0.136407     -0.604191
Ti       1.81865      5.90817      6.42184         0.737395     -1.030633     -0.746386
Ti      13.54604      5.83263      6.41369         0.265375      0.314423     -0.647639
Ti       1.99670      5.86750     10.44332        -1.247245     -0.682706      1.119098
Ti      13.54855      5.84340     10.67878         1.217904      0.115544     -1.389620
Ti       1.96739      9.72372      2.13274        -0.449131     -1.028698      1.284959
Ti       1.93393      9.74230     14.62790        -0.218291     -0.352944      0.946833
Ti      13.70641      9.74865      2.11942        -0.811227     -0.572484     -0.873660
Ti      13.56830      9.87034     14.63762         0.394674     -1.326107      1.158682
Ti       1.90228      9.72135      6.46841         0.674217      0.014355     -1.082307
Ti      13.60852      9.79150      6.44900         0.106610     -0.399223     -0.024760
Ti       1.87319      9.76965     10.57689         0.248805      0.494814     -0.262707
Ti      13.60026      9.82271     10.56745        -0.183138     -0.276451     -0.052440
Ti       5.80437      1.87179      2.27939         0.909738      0.065842     -0.674565
Ti       5.86841      1.98821     14.73216        -0.316735     -0.456904     -0.761043
Ti       5.86351     13.65998      2.20244         0.760765     -0.115090      0.211286
Ti       5.83011     13.64950     14.76003         0.276597     -0.325502     -0.990276
Ti       5.86581      2.00587      6.39567        -0.911283     -1.485199     -0.304918
Ti       5.85479     13.60429      6.40321         0.084456     -0.629696     -0.284822
Ti       5.78945      1.83949     10.46793        -0.006122      0.696881      0.913903
Ti       5.75620     13.58171     10.50678        -0.205663      0.432257     -1.249666
Ti       5.87583      5.73852      2.38151         0.272461      0.403035     -1.538096
Ti       5.71408      5.79638     14.61328         0.905413      1.289942      0.213519
Ti       5.76528      5.79555      6.34792         0.095255      0.716422      0.967068
Ti       5.92101      5.71562     10.53584        -0.722565     -0.186321      1.714304
Ti       5.81962      9.77285      2.23346         0.714274     -0.496926     -0.421301
Ti       5.79810      9.76873     14.76972         0.363178     -0.499656     -0.204217
Ti       5.87566      9.71618      6.52945        -0.780506      0.603216     -1.023634
Ti       5.82512      9.71176     10.55878        -0.308705      0.006334     -0.520393
Ti       9.75768      1.93386      2.24924        -0.161225     -0.268458     -0.854575
Ti       9.78577      2.03406     14.70621         0.318529     -0.946545      1.491624
Ti       9.76130     13.61064      2.28340        -0.117660      0.771862     -1.295630
Ti       9.74069     13.65085     14.65646        -0.389868      0.470174      0.465254
Ti       9.77898      2.01697      6.35782         0.220753     -0.529894     -1.086400
Ti       9.77214     13.70941      6.44359        -0.649733     -0.306077      0.118016
Ti       9.71667      1.91000     10.53779        -0.993333      0.526325      0.056984
Ti       9.70268     13.64785     10.57334         0.549890     -0.060509      0.579959
Ti       9.78724      5.87962      2.30520         0.390331     -0.449709     -0.753926
Ti       9.69995      5.84394     14.66602         0.259087      0.698122     -0.034779
Ti       9.72075      5.86219      6.34615        -0.237540      0.017185     -1.123208
Ti       9.67071      5.89659     10.58396        -0.209167     -0.826086      0.506553
Ti       9.68022      9.75724      2.26431         1.270186     -0.027767     -1.254892
Ti       9.65504      9.71548     14.74746         0.090569     -0.789011     -0.763574
Ti       9.78294      9.79122      6.47816        -0.493855     -0.798559      0.316936
Ti       9.69453      9.67479     10.52583         0.373914      0.754515      1.194602
O       1.97612      1.85765      0.47687        -0.214057      0.340749     -0.955391
O       1.92601      1.83686     12.94560         0.023958     -0.087758      0.141222
O       2.03522     13.51586      0.42629        -0.107364      0.215939     -0.590689
O       1.85787     13.72280     12.98135         0.234919     -0.039096     -0.010907
O      13.64954      1.90025      0.40967         0.631668      0.395514      0.469010
O      13.67127      1.85707     13.02143        -0.036009      0.072384     -2.099755
O      13.58072     13.61722      0.41427         0.059496      0.069353     -0.716154
O      13.75351     13.67441     12.89532         0.160850      0.057418     -0.077291
O       1.99571      1.98428      4.55699        -0.163773     -0.461901      0.292991
O       2.06178     13.72018      4.63276        -0.481127     -0.467945     -0.508420
O      13.70222      1.96915      4.60181        -0.680265     -0.064217     -0.268385
O      13.60507     13.64293      4.63241         0.010664     -0.023929     -0.155779
O       1.82647      2.04415      8.63786         0.106042     -0.065613      0.584107
O       1.98334     13.35970      8.74112        -0.062150      0.877013      0.207516
O      13.64374      1.99395      8.77901        -0.244901     -0.080966      0.688908
O      13.46753     13.73329      8.81006         0.235121     -0.098152     -0.589379
O       1.82294      5.76480      0.42456         0.246656     -0.414373     -0.971800
O       1.76412      5.97426     13.07559         0.392127     -0.648119     -0.494716
O      13.86050      5.96640      0.40713        -0.782116     -0.680572      0.501638
O      13.56390      5.79003     12.98952         0.070860      0.084544     -0.932033
O       1.88469      5.93811      4.65130        -0.099908      0.025981     -0.098434
O      13.56936      5.80413      4.61649        -0.043044      0.254621      0.288440
O       1.89067      5.86554      8.69589        -0.051540     -0.330356      0.092229
O      13.53611      6.01904      8.79761         0.052784     -0.601917      0.518829
O       1.96976      9.77506      0.41784        -0.043695      0.243156     -0.567247
O       2.09142      9.72154     12.87730        -0.386914     -0.019500     -0.601981
O      13.82304      9.68689      0.31875        -0.635624      0.474648      0.509077
O      13.41420      9.81234     12.89941         0.558625      0.272338     -1.238526
O       1.91226      9.59060      4.67282         0.088810      0.272909      0.255235
O      13.64547      9.79130      4.63693         0.114646      0.120400      0.407569
O       1.88996      9.83028      8.79838        -0.277065     -0.046634      0.170737
O      13.46732      9.74299      8.79836         0.495341     -0.116492      0.228739
O       5.88092      1.89203      0.48673        -0.215446      0.453831     -0.206536
O       5.81447      1.79339     12.95255         0.055993      0.223811      0.440834
O       5.80029     13.63094      0.41155         0.271380     -0.044273      0.337158
O       5.92948     13.66944     12.96812        -0.153351     -0.156000     -0.201882
O       5.85493      1.92207      4.62871         0.090154     -0.279661     -0.070648
O       6.05614     13.65352      4.60616        -0.719958     -0.073192      0.143717
O       5.84789      1.94665      8.72074         0.025312     -0.019740     -0.312509
O       5.52749     13.51627      8.67592         0.897647      0.476516      1.529622
O       6.01729      5.58646      0.57907        -0.544419      0.556785      0.819946
O       5.62772      5.87548     12.86323         0.211513     -0.050816     -0.129082
O       5.71964      5.75013      4.61739         0.311811      0.057195     -1.328223
O       5.81849      5.76179      8.81902         0.289477     -0.045890     -0.946462
O       5.83818      9.68677      0.46617        -0.062399      0.134883      0.135819
O       5.85409      9.80439     13.01231        -0.473243     -0.365623     -1.314267
O       5.91244      9.72119      4.73124        -0.288349     -0.009604     -0.270356
O       5.95138      9.60956      8.79976        -0.283411      0.297244      0.296703
O       9.66601      1.94983      0.46366         0.458394     -0.211769     -0.112848
O       9.74959      2.02219     12.96074        -0.064897      0.229750     -1.133813
O       9.81878     13.65044      0.48909        -0.175761     -0.330529      0.038293
O       9.55609     13.65787     12.90902         0.060665     -0.244171     -0.826695
O       9.81706      1.97931      4.53753         0.232052      0.311603      0.828632
O       9.84413     13.49667      4.72710        -0.254998      0.410220     -1.149913
O       9.53768      1.83362      8.79040         0.792124      0.336725     -0.445318
O       9.91659     13.70671      8.85903        -0.363976      0.050534     -1.526142
O       9.69059      6.11418      0.53602        -0.217030     -0.333854     -0.116336
O       9.79000      5.74714     12.89959         0.086867     -0.146093      0.035570
O       9.83006      5.67275      4.53714         0.142986      0.410996      0.567525
O       9.47758      5.82555      8.85607         0.686168      0.258569     -0.729576
O       9.73626      9.71226      0.43625         0.021866      0.129105      0.804644
O       9.85813      9.82026     12.96622        -0.579788      0.058693     -0.266875
O       9.73412      9.79746      4.73568         0.146138      0.085028     -1.257017
O       9.68699      9.56989      8.78553         0.023569      0.529034     -0.333774
O       3.89550      1.85089      2.52095        -0.215525      0.286197      0.035820
O       3.93297      1.87607     15.01645        -0.079276      0.250919      0.151626
O       3.98393     13.58542      2.58883        -0.327425      0.028690     -0.278609
O       3.88279     13.65935     15.00960         0.281087     -0.396578      0.001466
O       0.01988      1.77836      2.63396         0.145772      0.538194     -0.628441
O       0.01756      1.84891     15.04354         0.017232      0.026557      0.039492
O       0.04460     13.65689      2.55318        -0.412093     -0.432365     -0.268461
O       0.01268     13.60816     15.08588        -0.384523      0.520106     -0.244683
O       3.88118      1.99243      6.62517        -0.087274     -0.125270      0.245695
O       3.92697     13.69763      6.59268        -1.015507     -0.327668      0.056150
O      15.55853      1.91493      6.62919        -0.368568      0.140718      0.301633
O      15.53682     13.72510      6.72927        -0.189542     -0.790678     -0.058381
O       3.83326      1.93767     10.93880         0.528387     -0.270038     -0.462309
O       3.86391     13.64733     10.86647        -0.090998      0.060584      0.462135
O      15.58155      1.94827     10.88435        -0.209268      0.065783     -0.014478
O       0.09193     13.58781     10.90317        -1.642960      0.232819     -0.241793
O       3.81880      5.70456      2.50831         1.538333      0.045204      0.015781
O       3.91223      5.88521     15.12905        -1.146837     -0.598923      0.069891
O       0.01658      5.88570      2.59029        -0.012269      0.144247      0.012762
O      15.53026      5.95236     15.07197         0.594704     -0.955874     -0.342718
O       3.83173      5.79560      6.66590         0.162009     -0.054665      0.302261
O      15.50106      5.74763      6.75708        -0.367119      0.674954     -0.145073
O       3.80485      5.72691     10.83156         0.677769      0.575994     -0.026046
O      15.50659      5.91955     10.78993         0.808229     -0.265135      0.500458
O       3.93438      9.81465      2.53409        -0.117967     -0.115929      0.084662
O       3.86230      9.78160     15.04099         0.290759     -0.354731      0.205852
O      15.60639      9.70292      2.48964         0.880923      0.139062      0.373450
O       0.01036      9.80346     14.85503        -0.221836     -0.072816      0.004641
O       3.86031      9.63238      6.86753        -0.237133     -0.046099     -0.344712
O      15.59259      9.82289      6.78292        -0.839363     -0.058768     -0.054996
O       3.85602      9.76676     10.75686         0.469516     -0.222528      0.381412
O      15.51389      9.76392     10.84068         0.033405      0.015245      0.235675
O       7.87468      1.83140      2.61428        -0.910273      0.266029      0.076043
O       7.77811      2.01279     15.12039        -0.157624     -0.059651     -0.872259
O       7.86453     13.72320      2.63248        -0.487231     -0.353315     -0.473286
O       7.83508     13.73180     15.13786        -0.342704     -0.607013     -0.335347
O       7.83540      2.07573      6.66253        -0.454203     -0.532783     -0.187644
O       7.71434     13.53339      6.82766         1.277673      0.302744      0.231063
O       7.76141      1.86832     10.91476         0.183303      0.187835     -0.223787
O       7.70363     13.71600     10.66010         0.764117     -0.507337      0.360370
O       7.85430      5.87751      2.72049        -0.999536     -0.155168     -0.309325
O       7.79440      5.73114     14.96197         0.004297      0.577816     -0.094794
O       7.86570      5.76062      6.64935        -1.611474     -0.080799     -0.130609
O       7.77558      5.79845     11.08297        -0.210387      0.193474     -0.627145
O       7.82898      9.73558      2.50333        -0.344790     -0.378119      0.424866
O       7.71715      9.54507     14.93942         1.136847      0.476439      0.476735
O       7.77064      9.74339      6.79629         0.153038      0.079452      0.137379
O       7.75706      9.78238     10.97864         0.564372      0.105010     -0.418975
O      11.76279      2.05348      2.43005         0.147382     -0.272968      0.530390
O      11.73195      2.06190     15.08216        -0.324913     -0.472737     -0.164621
O      11.71519     13.59964      2.56003         0.829459      0.079177      0.215927
O      11.61486     13.67898     14.84450         0.924635     -0.284941      0.339388
O      11.67712      1.94581      6.71277        -0.597053      0.019008      0.217569
O      11.62968     13.70433      6.71278         0.455372      0.113651      0.310350
O      11.70085      1.89823     10.84208        -0.492737      0.441143     -0.155690
O      11.68838     13.82108     11.02287         0.051326     -0.737722     -0.485854
O      11.71161      5.74113      2.32466         0.734504     -0.090261      0.573339
O      11.70384      5.81225     15.15623        -0.329757     -0.169531      0.029664
O      11.58523      5.91597      6.80607         1.209064     -0.337751      0.129514
O      11.64317      5.77151     10.74691        -0.529754      0.021974      0.293686
O      11.74918      9.79291      2.49790        -0.184076      0.144568      0.222730
O      11.67409      9.90150     15.01444         0.083142     -0.177396      0.321302
O      11.65507      9.72727      6.75623         0.596431     -0.070132     -0.067575
O      11.67624      9.78791     10.92755        -0.594200     -0.281682     -0.542195
O       1.87484      3.83045      2.62403         0.178752      0.181011     -0.838080
O       1.95979      3.80875     14.98291        -0.196319      0.794401      0.326925
O       1.90521     15.46351      2.57749         0.726098      0.800404     -0.352105
O       2.01554     15.59341     15.16733        -0.502643     -0.396471     -0.608403
O      13.83002      3.89715      2.50486        -0.313131     -0.269787     -0.275140
O      13.74548      3.88506     14.95028         0.236060      0.080698      0.639653
O      13.69041      0.00810      2.38358        -0.421745     -0.787982      0.723255
O      13.58257     15.58204     15.11119         0.636095     -0.387634     -0.509512
O       1.80137      3.88929      6.71050         0.408914      0.370862     -0.259338
O       1.89520     15.55102      6.79312         0.020641      0.225915     -0.218015
O      13.52295      3.91673      6.69938        -0.152480      0.073369      0.334800
O      13.55316      0.02471      6.71726         0.035115     -0.362168      0.143373
O       1.93356      3.84185     10.92517        -0.482519      1.042692     -0.187870
O       1.83007      0.00536     10.69519         0.351648     -0.200772      0.209807
O      13.73967      3.91734     11.01637        -0.757253     -0.429226     -0.459491
O      13.68276      0.00411     10.88854         0.167481      0.294219     -0.166676
O       2.10872      7.79070      2.32175        -0.252862     -0.052753      0.468975
O       1.91213      7.74657     15.09024         0.520318      0.723651      0.053943
O      13.59891      7.82195      2.44857         0.229659     -0.350975      0.740693
O      13.52806      7.87294     14.83310         0.209366     -0.429563      0.568525
O       1.79930      7.74553      6.87314         0.126895      0.710971     -0.257990
O      13.64262      7.82303      6.66224        -0.075961     -0.058783      0.231007
O       1.87109      7.79185     10.81296         0.321706     -0.017917     -0.072894
O      13.52962      7.74352     11.05052         0.379214      0.899816     -0.796979
O       2.01836     11.68281      2.54621        -0.320527     -0.470418      0.164598
O       1.94774     11.63587     15.08165         0.167383      0.885374     -0.515524
O      13.78060     11.67158      2.47089        -0.315759      0.534348      0.228597
O      13.65900     11.76399     14.96022        -0.006716      0.193632      0.085242
O       1.95934     11.69509      6.60854        -0.236083     -0.374369      0.187164
O      13.49929     11.73482      6.79168         0.333740     -0.043984     -0.219951
O       1.89676     11.72911     10.98120         0.226379     -0.793040     -0.008669
O      13.54449     11.78401     10.88514         0.316825     -0.909768     -0.189640
O       5.90782      3.76813      2.72319        -0.304292      0.921175     -0.613465
O       5.76088      3.96169     14.85882         0.041879     -2.008766      0.590989
O       5.85229     15.60114      2.52330         0.077863     -0.856659      0.217691
O       5.87217     15.52488     15.04068        -0.138459      1.125076      0.026917
O       5.76948      3.82377      6.74793         0.602832      1.316538     -0.277295
O       5.78958     15.55967      6.80061         0.654995      0.709104     -0.618195
O       5.88204      3.81746     10.88462        -0.223330      0.159979      0.070327
O       5.81836     15.56129     10.77678        -0.318359      0.065039      0.189929
O       5.85974      7.72372      2.52774        -0.170388      0.028178      0.033137
O       5.81057      7.73628     15.08073        -0.135506     -0.121685     -0.088213
O       5.78929      7.65790      6.73698         0.356325      0.435339      0.014514
O       5.88101      7.74694     10.92663        -0.473337      0.392954     -0.380718
O       5.96711     11.68072      2.46561        -0.238980      0.194279      0.279896
O       5.96144     11.66433     15.02572        -0.266526      0.640164      0.275633
O       5.71971     11.67690      6.75706         0.293089     -0.658448     -0.122828
O       5.77473     11.70059     10.85187         0.260035     -0.349893      0.046593
O       9.68810      3.88982      2.32586         0.096789      0.389281      0.814543
O       9.82652      3.91921     15.12343        -0.360846      0.380351     -0.087245
O       9.83517     15.56955      2.51913         0.343885     -0.087389      0.770473
O       9.78448      0.09944     14.88788        -0.160122     -0.740925      0.444245
O       9.80014      3.93296      6.76061         0.171286     -0.950381      0.140553
O       9.56178      0.02656      6.55311         0.415854     -0.083672      0.287935
O       9.66135      3.87056     10.82659         0.250902     -0.460338      0.060317
O       9.76900     15.58601     10.93347        -0.665422      0.594310     -0.279184
O       9.86274      7.84168      2.82215        -0.432475      0.053609     -0.747546
O       9.90103      7.79380     14.87586        -0.377608     -0.496278      0.394446
O       9.67646      7.78200      6.60370         0.016454     -0.220988      0.204001
O       9.69788      7.80842     10.89910         0.007894     -0.038978     -0.063279
O       9.76158     11.69005      2.61219        -0.073328     -0.467977     -0.204702
O       9.62376     11.66457     15.01697         0.044812      0.814717      0.166142
O       9.73242     11.67456      6.83527         0.070838      0.613465      0.415541
O       9.84853     11.73252     10.77359        -0.716373     -0.287415      0.072343
