  # total energy = -7881.52923026 
CRSYTAL
PRIMVEC
    15.6080000000000005    0.0000000000000000    0.0000000000000000
     0.0000000000000000   15.6080000000000005    0.0000000000000000
     0.0000000000000000    0.0000000000000000   16.6239999999999988
PRESSURE
-0.422509 -0.35933 0.240232 -0.166245 -0.166336 -0.025126
PRIMCOORD
320 1
Pb       4.05181      3.99040      4.25041        -1.174559     -0.252372     -0.397831
Pb       3.95766      3.98689     16.51108        -0.300681     -0.319600      0.935015
Pb       3.93480      0.11600      4.04448        -0.117573     -0.593807      0.127208
Pb       3.82934      0.01686     16.44039         0.285322     -0.391534      0.422123
Pb       0.05408      3.85454      4.15670         0.147572      0.012485      0.096810
Pb      15.58825      3.75931     16.60580        -0.592016      0.693456      0.116254
Pb      15.47900      0.01771      4.08364         0.126167     -0.398907      0.354853
Pb      15.55322      0.04560     16.58963        -0.435124     -0.929107     -0.299243
Pb       3.81117      3.81386      8.24446         0.266995      0.000730     -0.004448
Pb       3.96793     15.58565      8.13343        -0.459390      0.105957      0.424160
Pb      15.52775      3.89738      8.32223         0.052981     -0.127300     -0.271848
Pb       0.00998     15.56055      8.23838         0.012924      0.010049      0.104198
Pb       3.71723      3.91981     12.64009         0.142690     -0.161612     -0.687060
Pb       3.86896     15.49884     12.55303         0.054306      0.044302     -0.301385
Pb      15.60276      3.96789     12.61896        -0.370913      0.082915     -0.811716
Pb       0.17368     15.55923     12.46482        -0.501375      0.258767     -0.066755
Pb       3.79079      7.89823      4.01216         0.070609     -0.919024      0.293629
Pb       3.95307      7.67057     16.57499        -0.651934      0.689484      0.657292
Pb       0.08482      7.86223      4.13580        -0.124852     -0.498523     -0.088021
Pb      15.50415      7.73505     16.59005         0.361612      0.449301      0.391073
Pb       3.85113      7.73690      8.33872        -0.249546      0.414957     -0.424191
Pb      15.34506      7.69893      8.52937         0.596490      0.375657     -0.476649
Pb       3.96937      7.82575     12.38551        -0.158788      0.031752      0.245628
Pb      15.40888      7.74164     12.51963         0.567352      0.369212     -0.160682
Pb       3.82406     11.68621      4.05376        -0.007638      0.420848     -0.109794
Pb       3.93776     11.64235     16.56551        -0.446842      0.160751      0.022005
Pb      15.56197     11.70506      4.11808         0.080208      0.256976     -0.177397
Pb      15.52993     11.77111     16.59170         0.009974     -0.085900      0.314143
Pb       3.85060     11.88852      8.29288        -0.067534     -0.419616     -0.146651
Pb       0.06714     11.63869      8.11652        -0.355891      0.150704      0.275676
Pb       3.95182     11.60976     12.24083        -0.259971      0.185051      0.817185
Pb       0.09400     11.60827     12.42086         0.166161     -0.190046     -0.126077
Pb       7.78681      3.66642      4.13894         0.176036      0.533879      0.064314
Pb       7.88440      3.94656     16.54278        -0.170421     -0.157534      0.624158
Pb       7.81666     15.48382      4.15659         0.014228     -0.412266     -0.551836
Pb       7.83408      0.13244     16.55422        -0.054698     -0.954384      0.385615
Pb       7.66168      3.79189      8.53839        -0.133336      0.206722     -0.504791
Pb       7.81069      0.00683      8.23814        -0.190915      0.088011      0.455981
Pb       7.78782      3.59850     12.50210        -0.012881      0.740697      0.163316
Pb       7.77922     15.51933     12.48303         0.214065     -0.594398     -0.241718
Pb       7.95142      7.82505      4.14626        -0.803188      0.265347      0.528820
Pb       7.65928      7.79339     16.56489         0.698037      0.328531      0.344036
Pb       7.85985      7.85144      8.16419         0.146238     -0.229766      0.073990
Pb       7.87018      7.61484     12.38234         0.281245      0.794054      0.499087
Pb       7.87669     11.64402      4.10189        -0.237355      0.265574      0.161520
Pb       7.77222     11.82566     16.49018         0.001156     -0.425606      0.216892
Pb       7.74760     11.71031      8.19028        -0.030468     -0.299811     -0.075884
Pb       7.83565     11.56359     12.36783         0.054392      0.850036      0.356895
Pb      11.76901      3.74548      4.28975        -0.018011      0.104500     -0.524580
Pb      11.70962      4.10847      0.29461         0.318756     -0.283214     -0.812033
Pb      11.40573     15.51843      4.14069         0.419427     -0.346095     -0.000598
Pb      11.67259     15.58928     16.49709         0.298009     -0.071946      0.185548
Pb      11.65928      4.14447      8.43158         0.012355     -0.465539     -0.225906
Pb      11.65162      0.16399      8.38943         0.095534     -0.279439     -0.230016
Pb      11.83369      3.74751     12.49639        -0.012711      0.432340     -0.316395
Pb      11.53650     15.51492     12.35450         0.903964      0.095607      0.813202
Pb      11.62012      7.67176      4.07618         0.256744      0.310077      0.270673
Pb      11.69739      7.85962      0.02531        -0.231701      0.092247      0.227843
Pb      11.65734      7.81244      8.32296        -0.504410     -0.154989     -0.111500
Pb      11.46521      8.00789     12.50292         0.487526     -0.540830     -0.145969
Pb      11.85093     11.35660      4.20149        -0.484901      0.919328      0.266440
Pb      11.76590     11.64602     16.59278        -0.024198      0.002138      0.136885
Pb      11.78334     11.90198      8.42697         0.160966     -0.365973     -0.695717
Pb      11.80144     11.77368     12.41771        -0.605098     -0.323494      0.673719
Ti       1.88268      1.86600      2.20996         0.666198      1.444624      1.180924
Ti       1.92024      1.99714     14.75513         0.291834     -0.857796     -1.411899
Ti       1.85649     13.68584      2.19628        -0.403928     -1.321422     -0.578006
Ti       1.94599     13.55134     14.63048        -0.485202      0.170402      1.184000
Ti      13.63231      1.85549      2.24007        -0.612034      0.642851     -0.615053
Ti      13.63993      1.99181     14.65345        -1.058110     -0.668852     -0.283091
Ti      13.48696     13.60269      2.27641         0.884241     -0.540696     -0.889202
Ti      13.61348     13.67549     14.53529        -0.170758     -0.200160      2.046910
Ti       1.86526      1.97016      6.40629         0.010407      0.377154     -0.064740
Ti       1.90691     13.71909      6.23494        -0.585505     -0.415781      0.053836
Ti      13.58723      1.89659      6.47146         0.295915      0.594517     -0.270129
Ti      13.56183     13.65585      6.30347         0.358360     -0.887697      1.128896
Ti       1.91063      2.01507     10.57166         0.412856     -0.626791     -1.061232
Ti       1.94110     13.68902     10.51135        -0.032032     -0.985312     -0.846338
Ti      13.70214      1.86794     10.55308         0.008996      0.402588      0.333255
Ti      13.71721     13.61929     10.52478         0.165495      0.751096     -0.569662
Ti       1.91872      5.80326      2.17628         0.012896      0.184358      0.444587
Ti       1.87888      5.92207     14.72919        -0.807537      0.180419     -0.097379
Ti      13.67232      5.74388      2.22428         0.263718      1.148039     -0.023992
Ti      13.57115      5.89296     14.71330         0.149500     -0.495313      0.368126
Ti       1.86194      5.95617      6.31015        -0.623489     -0.158606     -0.334051
Ti      13.57946      5.80661      6.33249         0.235530     -0.200386      0.602328
Ti       1.93940      5.90702     10.59714        -0.494274     -0.015376      0.226949
Ti      13.59324      5.84286     10.60071        -0.267871     -0.140094      0.215237
Ti       1.91263      9.77715      2.12626        -0.418105     -0.079487     -0.041683
Ti       1.94724      9.78769     14.67913        -0.518449     -0.722277      0.073060
Ti      13.72703      9.62037      2.25438        -0.289956      0.559932     -0.713555
Ti      13.64144      9.71322     14.68959        -0.357439      0.912018     -0.115193
Ti       1.96934      9.77557      6.23950        -0.961039     -0.550006      1.503319
Ti      13.62499      9.61034      6.44547         0.836313      1.437772     -0.167989
Ti       2.02708      9.66502     10.45916        -1.531966      0.949253      0.920878
Ti      13.67886      9.79604     10.61362        -0.056639     -0.720653      0.141706
Ti       5.81919      2.00847      2.15206        -0.198805     -1.216373      0.191704
Ti       5.88438      1.98026     14.72331        -0.269423     -1.177408      0.044914
Ti       5.78194     13.69772      2.12686         0.532884     -0.031503      0.469113
Ti       5.83714     13.64172     14.63795         0.210579     -0.082218     -0.692497
Ti       5.92422      1.90102      6.27339        -0.655870      0.641344      1.024072
Ti       5.81570     13.64708      6.24237        -0.063046     -0.705986      1.548757
Ti       5.71741      1.83134     10.67018         0.423629      0.737571     -0.722070
Ti       5.77057     13.63005     10.48539         1.248568     -0.173623     -0.012323
Ti       5.88232      5.83047      2.29322        -1.347126      1.130598     -0.486790
Ti       5.76772      5.91780     14.64693         1.330531     -0.337986     -0.358965
Ti       5.71102      5.87881      6.35931         1.724706     -0.474885      0.092058
Ti       5.85778      5.66470     10.67455         0.279767      0.316838     -1.045599
Ti       5.79733      9.79769      2.20365         0.724048     -0.289595      0.034437
Ti       5.81504      9.76752     14.65631         0.421019      0.493264     -0.442688
Ti       5.75043      9.72802      6.30592         0.783126      0.517857      0.861883
Ti       5.96354      9.63967     10.47417         0.715511      0.084960      0.238978
Ti       9.75498      1.94348      2.13541         0.100724     -0.347482      0.470968
Ti       9.82214      1.98434     14.74692         0.531344     -1.208810     -0.405555
Ti       9.68142     13.59783      2.09987        -0.317075     -0.147486      0.927095
Ti       9.75607     13.58300     14.69847         0.021336      0.689249     -0.333831
Ti       9.76562      2.00694      6.40556         0.030238     -0.510609      0.408934
Ti       9.68380     13.65548      6.44863         0.816469     -0.444781     -1.009519
Ti       9.78231      1.91746     10.58236        -0.384624      0.065036     -1.081119
Ti       9.78459     13.60613     10.44468        -1.134530     -0.411442     -0.173336
Ti       9.71411      5.79415      2.24421         0.362406      0.584344     -0.023997
Ti       9.71897      5.84780     14.73706         0.665431      0.816206     -0.404337
Ti       9.61399      5.75630      6.28180         0.309101      1.119093      0.173240
Ti       9.74234      5.68798     10.67745         0.327492      1.115588     -0.676362
Ti       9.77331      9.79157      2.14746         0.059409     -0.486906     -0.722530
Ti       9.71409      9.72536     14.74834         0.273268     -0.005433      1.735648
Ti       9.80914      9.79154      6.30948        -0.813683     -0.186701      0.796689
Ti       9.81720      9.81042     10.41401        -0.583082     -0.697571     -0.564223
O       1.88013      1.90720      0.44224        -0.130419     -0.108846     -0.965111
O       1.97884      1.93684     12.90350        -0.096218     -0.003780      1.168688
O       1.83683     13.51632      0.38160         0.038044      0.711346      0.447689
O       2.05119     13.67987     12.89324        -0.601134     -0.189308     -1.264561
O      13.63132      1.99655      0.45210         0.222530     -0.195289     -0.180162
O      13.52500      1.97359     12.86234         0.724151      0.180852      0.605988
O      13.64045     13.44492      0.48025        -0.516335      0.624038      0.442236
O      13.44320     13.61003     12.83022         0.469440      0.279962     -1.436471
O       1.72785      2.00355      4.63102         0.166147     -0.196917      0.081926
O       1.86622     13.61988      4.46222         0.129079      0.138845      0.476212
O      13.60371      2.09663      4.67835        -0.072903     -0.275145     -0.608914
O      13.59401     13.63029      4.55628        -0.131664      0.241981     -0.640485
O       1.82358      1.96112      8.75352         0.377164     -0.054990      0.529569
O       1.99395     13.54489      8.71702        -0.137597      0.455696     -0.021618
O      13.55477      1.84805      8.76961         0.658461      0.107482      0.007934
O      13.69942     13.52520      8.71862        -0.057331      0.425760      0.673587
O       1.99786      5.82789      0.38410         0.036275     -0.371260     -0.250101
O       1.76981      5.69037     12.92219         0.657509      0.408487      0.008317
O      13.63777      5.85637      0.40071        -0.204702     -0.263440      0.371611
O      13.71366      5.85382     12.92162        -0.046649     -0.330112      0.090922
O       1.73032      6.01256      4.50501         0.415490     -0.888806      0.767339
O      13.61167      5.87605      4.57215        -0.024649     -0.259529     -0.067843
O       1.99671      6.18881      8.84707         0.075841     -0.868509     -0.201677
O      13.50091      5.83164      8.78658         0.317358      0.081141      0.101339
O       1.88453      9.76951      0.37725         0.534795     -0.015175     -0.500728
O       1.82340      9.79298     12.91714         0.480673     -0.021284     -0.107162
O      13.65912      9.65234      0.46761        -0.255944      0.144693     -0.192791
O      13.57323      9.80321     12.90875         0.166335     -0.375322     -0.490495
O       1.76872      9.76180      4.48169         0.573861     -0.098572     -0.335290
O      13.60819      9.64129      4.64947         0.092071     -0.027530     -0.375390
O       2.03096      9.70152      8.72867        -0.282319     -0.462039     -0.250534
O      13.53991      9.62653      8.86765         0.008563      0.420092     -0.946329
O       5.68021      1.90597      0.39402         0.429724      0.269514     -0.564952
O       5.87194      1.81967     12.93623         0.116868      0.083185     -0.089687
O       5.87365     13.68811      0.35253        -0.300690     -0.115982      0.088482
O       5.80269     13.63693     12.82178        -0.047674      0.043126      0.295526
O       5.89524      1.95687      4.51137         0.050416     -0.078814     -0.580194
O       5.82445     13.59326      4.53378        -0.252827      0.398124     -1.249216
O       6.09633      1.90937      8.90010        -0.975103      0.164402     -0.232091
O       5.74956     13.65195      8.69079         0.077541     -0.138318      0.477272
O       5.62388      5.94387      0.45866         0.341588     -0.564466      0.184020
O       5.95514      5.97659     12.89440        -0.627440     -0.547305      0.707346
O       5.76366      5.75810      4.57809        -0.010796      0.011962     -0.143047
O       5.83794      5.47434      8.85769         0.016846      0.776077      0.070397
O       5.83189      9.69837      0.39816        -0.252281      0.093447      0.672455
O       5.85893      9.75029     12.87969        -0.107877     -0.037226     -0.323967
O       5.74582      9.82275      4.57229        -0.176056     -0.161335     -0.297536
O       6.05979      9.59102      8.71815        -0.474356      0.427258      0.513693
O       9.76747      1.93681      0.36697         0.219993      0.191074      0.551343
O       9.68415      1.74095     12.94808         0.319173      0.681573     -0.157847
O       9.50124     13.60529      0.35516         0.505114      0.134486     -0.222564
O       9.75303     13.57350     12.90600         0.124469      0.378856     -0.387003
O       9.71824      1.90451      4.56930         0.058304      0.204681      0.348410
O       9.74613     13.71287      4.62249        -0.245164      0.509093      0.404257
O       9.68122      1.92938      8.74374         0.166165     -0.091256      0.994326
O       9.79148     13.63865      8.62953        -0.299915     -0.241643      0.587221
O       9.78674      5.79786      0.41995        -0.123781     -0.308494      0.862089
O       9.77710      5.96604     12.92773        -0.170249     -0.540201      1.002730
O       9.65690      5.88896      4.49082         0.008067     -0.509943     -0.138627
O       9.72525      5.65820      8.87901         0.093059      0.266095      0.054469
O       9.85780      9.68787      0.31196        -0.840849      0.228732      1.882682
O       9.81486      9.75297     13.03714         0.019939     -0.024891     -1.953219
O       9.82461      9.86816      4.51965        -0.284651     -0.584034     -0.110301
O       9.70593      9.79382      8.61804         0.176205     -0.109745      0.231925
O       3.89371      1.84188      2.54776        -0.851849      0.046143     -0.174122
O       3.88462      1.91708     15.04879        -0.791041     -0.277597     -0.457997
O       3.79796     13.72889      2.44178         0.915676      0.044595      0.050738
O       3.84084     13.61494     14.78575         0.262502      0.119678      1.129536
O      15.53701      1.97325      2.54172         0.606896     -0.053535     -0.078865
O      15.49936      1.78572     15.00803         1.576755      1.350520     -0.042229
O      15.47483     13.55429      2.47895         0.799502      0.513351      0.422166
O      15.48472     13.42447     14.86571         0.479058      0.517192     -0.205823
O       3.82535      1.89295      6.62156         0.553150      0.066266      0.117728
O       3.83179     13.62932      6.64355         0.163372      0.216226     -0.273048
O      15.48475      1.93269      6.83924         0.434616     -0.082069     -0.208797
O       0.03885     13.64279      6.66042        -0.533176      0.417689     -0.118396
O       3.85598      1.83504     10.86267         0.371358      0.382047      0.078572
O       3.89603     13.51131     10.77012        -0.056191      0.364036      0.213373
O       0.07840      1.89338     10.92315        -0.777757     -0.126497      0.103667
O       0.02812     13.68194     10.88196        -0.304212      0.037016      0.026540
O       3.72064      5.83886      2.61068         1.415602     -0.226654      0.167755
O       3.86326      5.80739     14.97043         0.522856      0.404367     -0.516039
O      15.54658      5.90394      2.43958         0.228241     -0.693315      0.068938
O       0.02984      5.87246     15.09189        -0.697713     -0.553871     -0.219537
O       3.87104      5.75371      6.66920        -0.228533      0.147330      0.158085
O       0.01010      5.88029      6.68671        -0.679285      0.119267      0.385279
O       3.96071      5.86252     10.96031        -0.914109      0.472526      0.107762
O      15.57463      5.89912     10.84007         0.556947     -0.435049     -0.026073
O       3.85554      9.71021      2.60660         0.441844      0.878021     -0.736719
O       3.89729      9.79958     14.90737        -0.156363     -0.392723      0.235201
O       0.01284      9.87840      2.37015        -0.642795     -0.582399      0.709109
O      15.51182      9.75772     14.97828         0.386076      0.058383     -0.015695
O       3.81159      9.84748      6.74506         0.961811     -0.593426     -0.614936
O      15.54335      9.61858      6.79160         0.292220     -0.114954     -0.300080
O       3.91079      9.63741     10.74330         0.976309     -0.524891      0.164307
O      15.55061      9.71780     10.88365         0.278314      0.057447     -0.231578
O       7.76642      2.14444      2.29155         0.454563     -0.281011      0.561739
O       7.87977      1.97606     15.09992        -1.770982      0.338048     -0.498577
O       7.74932     13.61566      2.60833         0.198339     -0.177468     -0.338622
O       7.76001     13.64879     14.86146        -0.205773     -0.313659      0.287169
O       7.78382      1.83481      6.61935         0.679431      0.053800     -0.060578
O       7.70374     13.62298      6.63521         0.939256      0.485556      0.078112
O       7.84248      1.97365     10.89503         0.041247     -0.312106      0.214568
O       7.81008     13.57944     10.82457        -0.240586      0.230477     -0.284979
O       7.70746      5.82681      2.35059         0.566800     -0.342046      0.368114
O       7.73402      5.81213     15.16441        -0.301730     -0.142298     -0.747471
O       7.80327      5.87111      6.55564        -1.092265     -0.353104      0.455553
O       7.84623      5.52448     11.01652        -0.160339      0.601107     -0.280829
O       7.73216      9.72301      2.66032         0.140574      0.281276     -0.837947
O       7.81892      9.79871     14.95872        -0.966879     -0.031733      0.292895
O       7.78518      9.60857      6.55658        -0.336877      0.878829      0.010085
O       7.96128      9.84727     10.91096        -1.851622     -0.770245     -0.585508
O      11.69437      1.88927      2.52037        -1.036986      0.227607      0.145260
O      11.70184      1.80060     14.94159         0.044964      0.611661      0.121778
O      11.56322     13.72166      2.49197         0.670378      0.145858     -0.185791
O      11.63550     13.84317     14.97390         0.286839     -0.759644      0.083949
O      11.69347      2.03937      6.86498        -0.823591      0.013226     -0.772479
O      11.73481     13.50301      6.72816        -0.265588      0.499430     -0.256958
O      11.78777      1.95826     10.85993        -1.419378     -0.246667      0.010289
O      11.69061     13.54726     10.70453         0.222530      0.390069      0.062961
O      11.67186      5.89704      2.60904        -0.147448     -0.295122     -0.792914
O      11.70378      5.90922     15.09307        -0.464974     -0.434408     -0.434205
O      11.61756      5.80276      6.66927         0.548588     -0.033436     -0.087795
O      11.70084      5.79325     10.94766         0.108488     -0.236218     -0.142997
O      11.66045      9.59547      2.39186         0.188138      0.309103      0.683044
O      11.67848      9.51158     15.05499         0.217999      0.558373     -0.272216
O      11.65699      9.75192      6.62252         0.641753     -0.136290      0.326007
O      11.65247      9.84767     10.93506         0.598024     -0.494932     -0.378838
O       1.93533      3.81441      2.63469        -0.330352      0.143725     -0.669297
O       1.96148      3.88184     14.88811        -0.363509     -0.812439      0.655222
O       1.82229     15.57109      2.64143         0.005041      0.739416     -0.623603
O       1.76269     15.53061     14.95875         0.651838      0.273286      0.198273
O      13.55113      3.89607      2.39676        -0.032560      0.025413      0.621352
O      13.68424      3.92498     14.96649         0.028670     -0.475997      0.092756
O      13.67293      0.02750      2.50132        -0.217354     -1.031753      0.140725
O      13.64756     15.59686     14.95277         0.288924     -0.375899      0.251817
O       1.87053      3.90765      6.77507         0.020496      0.297691     -0.198798
O       1.82037      0.04589      6.61751         0.422975     -0.908437      0.126768
O      13.72358      3.92658      6.70371        -0.441962      0.456521      0.157341
O      13.46413     15.60749      6.60328         0.608382     -0.392577      0.235686
O       2.04565      3.88725     10.82783        -0.238577      0.710606      0.077779
O       2.02249     15.52965     10.79328        -0.244759      0.504176      0.452901
O      13.76900      3.85321     10.80650        -0.336130      0.342235      0.477110
O      13.65038     15.60316     10.90722         0.157341     -0.797538     -0.274065
O       1.96460      7.80512      2.39058        -0.456548      0.214947      0.357625
O       1.89062      7.77206     14.98568         0.475181      0.375728     -0.170188
O      13.75676      7.79165      2.60894        -0.503605     -0.118881     -0.319388
O      13.65153      7.78000     14.97309         0.323175     -0.207823      0.062113
O       1.95166      7.81543      6.48798         0.645253     -0.085282      0.583117
O      13.58063      7.74530      6.90519        -0.175145     -0.315640     -0.681582
O       1.85044      7.79646     11.02975         0.765402     -0.057263     -0.246851
O      13.65606      7.78120     10.83123        -0.242170      0.063009      0.268874
O       1.91597     11.68262      2.49972         0.475821      0.623935      0.145933
O       1.91637     11.62377     15.04571         0.141269      0.990531     -0.352230
O      13.59134     11.66716      2.63676        -0.398122     -0.365094     -0.208499
O      13.32187     11.68947     14.91982         0.656787     -0.185214     -0.108086
O       1.82896     11.64132      6.51920         0.312303      0.793276      0.159691
O      13.76802     11.66588      6.64514        -0.515914     -0.263273      0.059755
O       1.88071     11.65936     10.78027         0.435825     -0.437515      0.298558
O      13.69641     11.75130     10.90908        -0.092320     -0.545405     -0.291480
O       5.66781      3.86727      2.58353         0.477678      0.730212     -0.357839
O       5.68491      3.82856     14.85438         0.704275      1.031246      0.286896
O       5.93454      0.01761      2.52861        -0.305312     -0.037607      0.039215
O       5.80978     15.54663     14.92340        -0.032011      0.698566      0.295966
O       5.87046      3.76088      6.66082        -0.230891      0.622924     -0.025343
O       5.86189     15.57354      6.68002        -0.361990      0.175167     -0.322784
O       5.76316      3.84557     11.02869         0.137683     -1.027751      0.452641
O       5.77667     15.56559     10.75135         0.237642     -0.678542      0.650152
O       5.71873      7.76962      2.60444         0.348166     -0.054422     -0.382577
O       5.85054      7.84339     14.92639        -0.257975     -0.970173      0.298631
O       5.82673      7.77089      6.72801        -0.663946     -0.584575     -0.361526
O       6.13163      7.66937     10.87359        -1.109104      1.104585     -0.671565
O       5.84167     11.75758      2.48690        -0.639276     -0.795605     -0.294666
O       5.78980     11.68682     15.06111         0.212491      0.265656     -0.332609
O       5.85519     11.70362      6.66818        -0.205423     -0.393214      0.036154
O       5.78466     11.60322     10.78656         0.537450     -0.125806     -0.368545
O       9.81991      3.91166      2.56732        -0.211410     -0.502454     -0.400560
O       9.80200      3.87771     15.08198        -0.182834      0.467766     -0.352619
O       9.58161     15.53738      2.48199         0.285952      1.470560     -0.061331
O       9.68920     15.58238     15.10104        -0.199631      0.417615     -0.139449
O       9.70204      3.86570      6.66847        -0.086454     -0.177166     -0.383068
O       9.85466     15.59115      6.77269        -0.267866      0.552713     -0.435917
O       9.84664      3.81545     10.91743         0.043494     -0.718552      0.433098
O       9.78403     15.54669     10.79743        -0.162825      0.253770     -0.148244
O       9.64164      7.81682      2.62574         0.348485     -0.493575     -0.804920
O       9.62543      7.74437     15.11666         0.056244     -0.459807     -0.453588
O       9.67344      7.77930      6.60369         0.733366     -0.012754      0.025954
O       9.71664      7.81907     10.80603         0.208313     -0.337549      0.113359
O       9.83159     11.67750      2.48953        -0.679053     -0.173657     -0.256834
O       9.83243     11.71612     15.05997        -0.133529     -0.371886     -0.177274
O       9.72781     11.77523      6.52626        -0.496531     -1.121242      0.678078
O       9.76961     11.67818     10.73369        -0.003467      0.824169      0.176425
