  # total energy = -7883.29436220 
CRSYTAL
PRIMVEC
    15.6080000000000005    0.0000000000000000    0.0000000000000000
     0.0000000000000000   15.6080000000000005    0.0000000000000000
     0.0000000000000000    0.0000000000000000   16.6239999999999988
PRESSURE
-0.396907 -0.46265 -0.299797 0.187453 -0.123722 -0.049274
PRIMCOORD
320 1
Pb       3.80950      3.81499      4.11456         0.599863      0.136367      0.208092
Pb       3.83638      3.82957     16.51427         0.365955     -0.138884      1.214222
Pb       3.91117     15.49319      4.12642        -0.048410      0.163240      0.245287
Pb       3.98677     15.59096     16.54321        -0.672780      0.250305      0.713578
Pb       0.02871      3.94141      4.11597        -0.179935     -0.213899     -0.076378
Pb       0.03563      3.87624     16.61579        -0.096064      0.047792      0.343360
Pb       0.02555     15.52147      4.19391        -0.160040     -0.239346     -0.256008
Pb      15.60681      0.00426     16.55758        -0.247628     -0.591569      0.437463
Pb       4.01196      3.90154      8.18850        -0.618410      0.144173      0.975522
Pb       3.87498     15.41492      8.19003         0.026159      1.175231      0.810317
Pb      15.59658      3.91622      8.28247        -0.284904      0.002713     -0.251349
Pb      15.51094     15.51977      8.32586        -0.104092      0.438176     -0.031629
Pb       3.87332      3.78726     12.42988        -0.118309      0.344177     -0.423746
Pb       3.95839      0.09454     12.51828        -0.121368     -0.237531     -0.337276
Pb      15.60246      4.03645     12.53976        -0.036983     -0.563001     -0.505092
Pb       0.04987     15.51080     12.41351        -0.219049      0.405623      0.586832
Pb       3.95697      7.76125      3.98730        -0.122346     -0.316907      0.833886
Pb       3.90585      7.82623     16.59915        -0.080807     -0.239200      0.009382
Pb      15.44229      7.75136      4.10670         0.367105      0.116390      0.258532
Pb      15.59492      7.72490     16.58301         0.047404      0.356240      0.071183
Pb       3.76507      7.77846      8.30179         0.121433      0.315507      0.373997
Pb      15.55468      7.71685      8.29782         0.231172      0.481902     -0.050055
Pb       3.87646      7.73782     12.36188        -0.177633      0.392956     -0.096518
Pb      15.57175      7.75634     12.37976         0.124512      0.089518      0.133559
Pb       3.89700     11.65955      4.13530         0.243726      0.050032      0.476514
Pb       3.83946     11.73629      0.06091         0.302641     -0.162847     -0.703085
Pb      15.59101     11.61804      4.11117         0.040371      0.070701      0.174669
Pb      15.58741     11.58811     16.54053         0.070072      0.435937     -0.318973
Pb       3.91058     11.71511      8.42317        -0.299823     -0.735100     -0.779061
Pb       0.07616     11.74287      8.27755        -0.451799     -0.397570      0.206495
Pb       3.79565     11.65207     12.45385         0.083957     -0.280927      0.315117
Pb      15.50247     11.82224     12.51609         0.051006     -0.047123     -0.224804
Pb       7.82805      3.92352      4.08136        -0.325936     -0.280897      0.799355
Pb       7.82820      3.84252     16.61006        -0.377108      0.174459      0.250426
Pb       7.85814      0.02104      4.20302        -0.176543      0.049379     -0.244206
Pb       7.77679     15.56926     16.52377         0.451733      0.443771      0.240654
Pb       7.89836      3.80552      8.22773        -0.561569      0.242778      0.307708
Pb       7.72167      0.02015      8.14541         0.709025      0.362969      1.168748
Pb       7.86702      3.86801     12.52517        -0.482176     -0.345294     -0.647930
Pb       7.76241     15.57865     12.32663        -0.444546      0.219042      0.182562
Pb       7.92937      7.77612      4.15469        -0.801741      0.236453      0.491263
Pb       7.65906      7.59759      0.04380         0.299351      0.180790     -0.012741
Pb       7.74373      7.72553      8.23094         0.228480      0.226238      0.456761
Pb       7.64056      7.92351     12.47129         0.075776     -0.013991     -0.263874
Pb       7.81151     11.64400      4.10627        -0.437487      0.328464      0.816067
Pb       7.80820     11.75031     16.59844        -0.456343     -0.283893      0.241961
Pb       7.95147     11.65826      8.39399        -0.510471     -0.057586     -0.017567
Pb       7.78221     11.82537     12.44363        -0.055279     -0.567817     -0.127458
Pb      11.65944      3.81374      4.03219         0.431130      0.183033      0.476489
Pb      11.64395      3.81070      0.06991        -0.162798      0.393316     -0.459259
Pb      11.76023     15.55012      4.12182         0.120285     -0.295761     -0.220297
Pb      11.74411     15.59501     16.52451        -0.081373     -0.018300      0.186025
Pb      11.67410      3.86212      8.28728         0.299462     -0.261764     -0.052225
Pb      11.81799     15.59817      8.37366        -0.317407      0.215323     -0.335971
Pb      11.62539      3.92420     12.32621         0.227882     -0.340253      0.312668
Pb      11.50791      0.09000     12.45953         0.620185      0.153032      0.299468
Pb      11.68268      8.03704      4.25111         0.101480      0.172488     -0.421410
Pb      11.79591      7.76137     16.59250        -0.828400      0.047813     -0.015887
Pb      11.71200      7.66195      8.38725        -0.222052      0.484490     -0.058087
Pb      11.74279      7.85146     12.44815        -0.160025     -0.378301     -0.299275
Pb      11.80545     11.80626      4.07965        -0.449762     -0.308148      0.764228
Pb      11.51683     11.62319     16.62128         0.365566      0.219261      0.125048
Pb      11.59695     11.70833      8.37185         0.109238     -0.009650     -0.103761
Pb      11.68054     11.59159     12.51539        -0.360008      0.518946     -0.600024
Ti       1.89327      1.78775      2.21352         0.519077      1.152271     -1.028675
Ti       1.84778      1.89044     14.73067         1.128672     -0.351537      0.710718
Ti       1.97302     13.54092      2.20237        -0.228154      0.260635      0.163034
Ti       1.93804     13.63190     14.81464        -0.233160     -0.015112     -1.274040
Ti      13.67450      1.96148      2.12722         0.270923     -0.693766      0.973536
Ti      13.63223      2.02005     14.73778        -0.602957     -0.647693     -1.641355
Ti      13.67734     13.63576      2.15518        -0.115583      0.527466     -0.324290
Ti      13.60195     13.67224     14.66722         0.593357      0.557636     -0.016488
Ti       1.92085      2.01313      6.38087         0.072841     -0.230893      0.380939
Ti       1.92510     13.71600      6.45339        -0.152334     -1.183453     -1.572840
Ti      13.66634      1.94833      6.29609        -0.324353      0.649060      0.302457
Ti      13.60774     13.63440      6.42836        -0.425692     -0.240448     -0.340966
Ti       1.83611      1.99290     10.37491         0.064618     -0.002170      1.096745
Ti       1.94463     13.68083     10.58664        -0.892607      0.141328     -0.118842
Ti      13.68005      1.89336     10.63315        -0.478256      0.710922     -0.465675
Ti      13.57558     13.71487     10.57485         0.613461     -0.835462     -0.157265
Ti       1.93480      5.77236      2.19312         0.804640     -0.259005     -0.700886
Ti       1.86487      5.83280     14.81018         1.080289     -0.332013     -0.197850
Ti      13.63524      5.82943      2.12720         0.714112     -0.183927      0.808273
Ti      13.56469      5.90352     14.71504        -0.160888     -0.784117     -0.569299
Ti       1.94403      5.89240      6.37708        -0.694946      0.263686      0.163776
Ti      13.58350      5.92296      6.37186         0.482826     -1.388469     -0.467293
Ti       1.92658      5.85804     10.48255         1.271603     -0.244501     -0.637954
Ti      13.63498      5.75610     10.55038        -0.437186      0.456265      1.033308
Ti       1.99009      9.65400      2.15143        -0.895532      0.403119     -0.167849
Ti       1.93881      9.69230     14.65624         0.061965      0.909080     -0.647035
Ti      13.64451      9.78569      2.08091        -0.288727      0.033535      1.141292
Ti      13.59267      9.84791     14.58376         0.281083     -0.215828     -0.317593
Ti       1.87884      9.77588      6.35938         0.273309     -0.219085      0.508201
Ti      13.56880      9.77976      6.45551         0.810702      0.597926      0.120116
Ti       1.80798      9.78782     10.60173         0.789994     -0.722928      0.070342
Ti      13.60788      9.75062     10.52410        -0.229420      0.516970     -0.127955
Ti       5.79037      1.88420      2.27766         0.483800      0.585108      0.079519
Ti       5.77610      1.97861     14.73734         0.609715      0.147524     -0.313186
Ti       5.87284     13.66392      2.17860         0.182871     -0.582315      0.378996
Ti       5.86476     13.73027     14.71629        -0.276704     -1.325127     -0.280484
Ti       5.83363      1.97854      6.40419        -0.223489      0.465454     -0.758373
Ti       5.87668     13.66777      6.41223         0.142411     -1.416163     -0.194679
Ti       5.78513      1.90691     10.48531         0.764134     -0.233330     -0.232797
Ti       5.73348     13.55658     10.49773         0.802513      1.172426      0.910771
Ti       5.88479      5.73051      2.34159        -0.390317      0.204548      0.763102
Ti       5.71873      5.86247     14.58363         0.430684     -0.981706      0.031707
Ti       5.79941      5.87747      6.45061         0.467412     -0.701119     -1.933148
Ti       5.91753      5.75715     10.56433        -1.212205      0.329586     -0.748560
Ti       5.80336      9.71121      2.21689         0.543720      0.180461     -0.313097
Ti       5.85428      9.76958     14.76554        -0.140726      0.772031     -1.319058
Ti       5.77930      9.74776      6.51743         0.177454      0.654707     -0.793682
Ti       5.79796      9.72881     10.50863        -0.041051     -0.299563      0.129192
Ti       9.76765      1.93771      2.18601        -0.855534     -0.315445      0.766000
Ti       9.69444      2.03449     14.65839         0.221950     -0.783982     -0.435740
Ti       9.71731     13.65880      2.18542         0.148769     -0.087211      0.729046
Ti       9.73029     13.60880     14.66877        -0.088637      0.755563     -0.623002
Ti       9.78838      1.96964      6.28193        -0.369285     -0.658407      0.992692
Ti       9.76848     13.71001      6.42761         0.075951     -0.504106     -0.921310
Ti       9.66716      1.91991     10.47537         0.160576      0.588712     -0.165016
Ti       9.72279     13.69990     10.57914         0.069213     -0.975292     -1.091378
Ti       9.84775      5.88413      2.27754        -0.979033      0.130988     -0.432751
Ti       9.64581      5.89517     14.57039         0.853083     -0.178015      0.846378
Ti       9.71473      5.82297      6.34204        -0.448109      0.043292      0.726283
Ti       9.67795      5.83446     10.48400         0.358085      0.176591     -0.137991
Ti       9.66976      9.82428      2.30435         0.570865     -0.785549     -0.999672
Ti       9.69492      9.67680     14.73010        -0.248534      0.052374     -0.677389
Ti       9.69525      9.75310      6.44977        -0.214183      0.181860     -0.472363
Ti       9.69076      9.70809     10.60223        -0.634625      0.261610     -1.026660
O       1.99295      1.81458      0.39424        -0.484013      0.434803      1.017367
O       1.94013      1.80479     12.99082         0.190522      0.334257     -0.560118
O       2.01734     13.46887      0.40051        -0.106084      0.044125      0.774753
O       1.94091     13.65317     12.99152        -0.152553      0.192903     -0.237300
O      13.56467      1.85603      0.37253         0.346279      0.341245     -0.535228
O      13.59410      1.90464     12.90692        -0.071234      0.255611      1.304572
O      13.54478     13.65581      0.37294         0.267923     -0.366137      0.655683
O      13.76188     13.71236     12.88143        -0.329135     -0.249358      0.257876
O       1.93224      1.97840      4.61391        -0.280853     -0.335416     -0.429627
O       1.99443     13.76093      4.63995        -0.437036     -0.205317      0.077434
O      13.60535      2.05960      4.50259         0.014496     -0.531071      0.410478
O      13.63931     13.67657      4.61527         0.030426      0.008415      0.197570
O       1.83617      2.11676      8.61881         0.003312     -0.503486      0.710514
O       1.87069     13.55804      8.78649         0.215006      0.169445     -0.075793
O      13.66935      1.94797      8.84092        -0.161018     -0.162478     -0.247050
O      13.62231     13.80360      8.70544        -0.328995     -0.249996      1.182110
O       1.91878      5.75356      0.36236        -0.163308      0.240879      1.283445
O       1.86901      5.71341     13.04919         0.080067      0.339566     -0.434518
O      13.72348      5.91309      0.36562        -0.068398      0.179323     -0.454746
O      13.56915      5.80782     12.90338         0.353380      0.114503      0.306480
O       1.69645      6.02657      4.61408         0.689049     -0.347975     -0.293170
O      13.57954      5.77348      4.59005         0.219721      0.323283     -0.402604
O       1.92921      5.86889      8.68185        -0.448042      0.114716      0.419023
O      13.63808      5.80143      8.81383        -0.111097      0.236321     -0.822900
O       1.89455      9.79410      0.32628         0.228805      0.073947      0.821371
O       2.01592      9.62751     12.85200        -0.206574      0.356550      0.874866
O      13.64933      9.80101      0.32659         0.052865     -0.179415     -0.126348
O      13.33333      9.90915     12.76088         0.655986     -0.712929      1.179035
O       1.91191      9.67204      4.59977        -0.074193      0.008922     -0.452472
O      13.70267      9.87301      4.66433        -0.260534     -0.651495     -0.399880
O       1.96015      9.81241      8.85827        -0.458513     -0.159369     -0.402285
O      13.55332      9.75675      8.75971        -0.057567     -0.250011     -0.254944
O       5.83570      2.01145      0.49557         0.295482     -0.299136     -0.132345
O       5.85037      1.88658     12.98158        -0.417848     -0.319972     -1.221805
O       5.83284     13.79169      0.41430         0.323379     -0.416097     -0.308182
O       5.89606     13.66755     12.93926        -0.159038      0.118659     -0.133209
O       5.84223      1.93530      4.62052        -0.417609     -0.221621      0.264002
O       5.85077     13.63791      4.63851         0.005189      0.112121      0.388674
O       5.80978      1.93855      8.71877        -0.076753      0.179227      0.047541
O       5.52766     13.57919      8.77491         0.456237      0.348270     -1.302010
O       6.02466      5.68493      0.60471        -0.027697      0.396847     -1.520917
O       5.74839      5.87201     12.81529        -0.181027     -0.191349      0.241091
O       5.73393      5.67617      4.62849         0.174791      1.021235      0.494603
O       5.89115      5.74121      8.75276         0.117967      0.403064      0.616527
O       5.82813      9.63516      0.43262        -0.104237     -0.075301     -0.452286
O       5.79577      9.81712     12.94837         0.244267     -0.327357      1.009218
O       5.84771      9.88346      4.71296        -0.350490     -0.655622     -0.073929
O       5.89187      9.68476      8.74566        -0.253070      0.218976     -0.282669
O       9.69194      1.99971      0.44129        -0.141522     -0.154731     -0.477736
O       9.70640      2.04785     12.79818        -0.024425     -0.022981      1.626232
O       9.68488     13.55380      0.39034         0.277810      0.201179      0.329821
O       9.56324     13.79497     12.85270         0.519934     -0.538816      0.702284
O       9.76133      1.96642      4.51160         0.231408      0.030463     -0.697753
O       9.80273     13.50238      4.61477        -0.245998      0.816266      0.766075
O       9.52978      1.87593      8.70355         0.638565      0.215547     -0.023362
O       9.94915     13.62416      8.75788        -0.450878      0.341930      0.984050
O       9.73590      6.01006      0.53015        -0.155803     -0.006982     -0.211766
O       9.84894      5.85219     12.82385        -0.380972     -0.259056     -0.060900
O       9.77296      5.58805      4.59141         0.735502      0.935662     -0.485419
O       9.64958      5.82991      8.67025         0.129447     -0.032927      0.550475
O       9.80410      9.77802      0.49355        -0.411880      0.060830     -0.115829
O       9.74379      9.87332     12.91178         0.140738     -0.658498      0.716726
O       9.69024      9.74327      4.59967         0.183967      0.067038      0.873786
O       9.63322      9.82657      8.76860         0.381235     -0.179260      0.376709
O       3.84007      1.99502      2.53797         0.574932     -0.341484      0.165449
O       3.90275      1.90420     15.07352        -0.416561     -0.386632     -0.484301
O       3.92353     13.66605      2.59802        -0.229053     -0.472425     -0.381697
O       3.90992     13.63518     14.98859         0.737774     -0.096815      0.288758
O      15.58626      1.95404      2.49979         0.267850     -0.714668     -0.002233
O      15.58019      1.75903     15.01777        -0.119532      0.809786     -0.085929
O       0.02479     13.58470      2.60941         0.418602      0.327897     -0.472536
O      15.59179     13.75340     15.09137        -0.005561     -0.678521     -0.200530
O       3.84752      1.99894      6.68921        -0.271071     -0.265814     -0.069618
O       3.81653     13.64752      6.69258         0.767214      0.088201      0.073348
O      15.56163      1.87435      6.67140        -0.416296      0.520099     -0.281585
O      15.47282     13.62584      6.72744         1.272259      0.045662     -0.041506
O       3.89745      1.88816     10.86651        -1.171306      0.257099     -0.065358
O       3.81244     13.66767     10.88639        -0.035912     -0.145561      0.156995
O      15.54950      1.97757     10.92284         0.952026      0.266241     -0.276303
O      15.57967     13.59508     10.96976         0.429415      0.245712     -0.572674
O       3.92716      5.63434      2.51525        -0.681304      0.757287      0.095194
O       3.86110      5.73351     15.14076         0.444586      0.937587     -0.621810
O       0.05217      5.83558      2.51574        -0.752626      0.681109     -0.208849
O       0.03836      5.83828     15.14164        -1.155969      0.060853     -0.455567
O       3.82170      5.87431      6.66160        -0.084388      0.208541      0.054071
O      15.48404      5.90738      6.77492         0.481956     -0.398926     -0.210674
O       3.84826      5.72894     10.67843         0.261961      0.251267      0.952263
O       0.05785      5.90959     10.80543        -1.803453     -0.190429      0.466989
O       3.86004      9.76606      2.56183         0.753077      0.221220     -0.131188
O       3.90084      9.78795     14.97418        -0.130281     -0.223451      0.358015
O       0.06177      9.69989      2.47620        -0.743899     -0.092275     -0.117980
O      15.49296      9.84399     14.77482         0.621612     -0.412473      0.460898
O       3.83495      9.72479      6.82659         0.320838     -0.147945     -0.352149
O      15.52777      9.79294      6.84809         0.367593     -0.118941     -0.479353
O       3.91502      9.64988     10.82237        -0.682932      0.844367      0.249268
O      15.48193      9.63370     10.88665         0.867783      0.236011      0.013616
O       7.72799      1.81901      2.69564         1.021033      0.141472     -0.902815
O       7.78118      2.02136     14.98158         0.541246      0.021079      0.246579
O       7.83589     13.64426      2.56043        -0.204287      0.080036     -0.293833
O       7.81910     13.61699     14.98807        -0.074318      0.857584      0.441505
O       7.70791      1.93970      6.63726         0.635377      0.300919     -0.009406
O       7.76688     13.65311      6.83771        -0.613948      0.022040     -0.480168
O       7.76347      1.92885     10.80651        -0.456945     -0.125841      0.382571
O       7.80024     13.71752     10.63373        -0.445880     -0.215803      0.511986
O       7.85979      5.95854      2.70263         0.090933     -0.419556     -0.455073
O       7.75685      5.88236     14.86026        -0.233258     -0.358542      0.181007
O       7.76536      5.80344      6.54958         0.625918      0.045852      0.334197
O       7.76781      5.89476     10.97003         0.052831     -0.488446     -0.245195
O       7.69951      9.74952      2.57215         0.822910     -0.398461     -0.067290
O       7.82866      9.57777     14.95570        -0.725737      0.373335      0.387622
O       7.80891      9.77610      6.83802        -0.204497     -0.113293     -0.518034
O       7.73382      9.80755     10.93599         0.081269     -0.355301      0.104636
O      11.69785      1.94238      2.41310        -0.207631      0.334568      0.185591
O      11.65313      2.04728     15.07010         0.332131      0.006441     -0.297838
O      11.74727     13.57530      2.61295        -0.560371     -0.002494     -0.740268
O      11.65762     13.65398     14.92587        -0.538423     -0.256874     -0.127451
O      11.60403      1.88706      6.65170         0.806542      0.124864      0.090054
O      11.65097     13.67223      6.70284         0.060399      0.380251      0.055463
O      11.65333      1.98235     10.80636        -0.039269     -0.392203      0.040329
O      11.73984     13.70148     11.00643        -0.473432      0.038135     -0.466631
O      11.80364      5.69154      2.35101        -1.086653      0.193468      0.487149
O      11.70817      5.83048     15.07622         0.107152      0.154263     -0.138837
O      11.71474      5.89027      6.78872        -1.244867     -0.015719     -0.123579
O      11.67002      5.78646     10.76225        -0.271869      0.343366     -0.059860
O      11.66495      9.89977      2.48943         1.128053     -0.621750      0.175998
O      11.68196      9.82301     15.06476        -0.209813     -0.297023     -0.301283
O      11.67498      9.65965      6.72425        -0.892458      0.021604     -0.075439
O      11.55167      9.74903     10.79720         0.923800      0.037458      0.259866
O       1.90160      3.88384      2.58137        -0.221106      0.120997     -0.209713
O       1.97160      3.82032     15.12100        -0.840498     -0.203835     -0.707761
O       2.00763     15.57036      2.48215        -0.404676     -0.727183      0.323583
O       2.01776     15.52245     15.15957        -0.223922      0.679771     -0.410717
O      13.82143      3.84645      2.36516        -0.643459      0.657565      0.032471
O      13.78530      3.92067     15.01464        -0.194720     -0.483640      0.083155
O      13.61059     15.52354      2.43501         0.245250      0.792099      0.523005
O      13.60829     15.57166     15.03936        -0.361390      0.610574     -0.062792
O       1.87005      3.95859      6.68726        -0.208716     -0.243848     -0.537463
O       1.82393     15.55704      6.66777         0.283077      0.873124      0.441578
O      13.46180      3.86790      6.73300         0.708807     -0.260986     -0.176755
O      13.56431      0.03539      6.71157         0.157505      0.027750     -0.307465
O       1.79954      3.91664     10.87688         0.416740     -0.788914     -0.061808
O       1.73717      0.04152     10.67025         0.718610     -0.363109      0.115053
O      13.59975      3.88366     10.93590         0.540714      0.593610     -0.241537
O      13.74349     15.60259     10.83846        -0.417977     -0.252984      0.029602
O       2.19978      7.78568      2.32389        -0.745194     -0.416994      0.117535
O       1.87553      7.83178     15.10283         0.287704     -0.499600     -0.291826
O      13.56942      7.78149      2.45802         0.157644      0.568623      0.094490
O      13.65547      7.81661     14.77424        -0.144252      0.410626      0.749565
O       1.86780      7.85598      6.77496        -0.120665     -0.545584      0.049632
O      13.60881      7.79821      6.61819        -0.029544      0.296303      0.318487
O       1.97068      7.77848     10.94364        -0.392630     -0.336898     -0.421811
O      13.56242      7.81753     10.87350        -0.126263     -0.576758      0.128007
O       2.01780     11.66853      2.64297        -0.233546      0.173664     -0.610277
O       1.92257     11.67887     14.94771        -0.013980     -0.403044      0.279022
O      13.73471     11.68192      2.50319         0.048655     -0.507206     -0.218013
O      13.65866     11.75600     14.90621        -0.234532     -0.602090      0.088494
O       1.94150     11.67446      6.64777        -0.399519      0.453232      0.253331
O      13.49621     11.72179      6.75045         0.238701     -0.005511     -0.008898
O       1.88366     11.65506     10.91371         0.123011      0.598164      0.136504
O      13.71534     11.71763     10.83824        -0.700978      0.118965     -0.154875
O       5.94103      3.85506      2.68936        -0.145803     -0.659404     -0.594758
O       5.74091      3.83276     14.81658         0.366470      1.594001      0.627770
O       5.83436     15.52532      2.55342        -0.135974      0.867361      0.160595
O       5.92767      0.02743     15.05845        -0.246961     -0.490679     -0.189155
O       5.79200      3.99673      6.75173         0.133634     -1.779383     -0.080476
O       5.80667      0.05964      6.77247        -0.408731     -1.368487     -0.464383
O       5.83005      3.83253     10.86840         0.106230      0.292449      0.270562
O       5.78190     15.51550     10.80994        -0.001055      0.697396      0.257562
O       5.80014      7.75317      2.52202        -0.128877      0.327179      0.151082
O       5.78673      7.71024     15.01875        -0.082405      0.485324      0.045482
O       5.86152      7.74908      6.79366        -0.312977      0.687971     -0.323384
O       5.73861      7.80626     10.88606         0.814644     -0.667808     -0.033618
O       5.87176     11.68090      2.30168        -0.358879      0.308348      0.693175
O       5.99144     11.74346     15.06772        -0.528510     -0.823305      0.020657
O       5.78925     11.66307      6.74278        -0.098511      0.998824      0.344543
O       5.80630     11.69386     10.80336        -0.243862      0.218059      0.217039
O       9.65474      3.91530      2.39454         0.349012     -0.511529      0.153265
O       9.73461      3.98968     15.16479        -0.065000     -0.339573     -0.750383
O       9.83527     15.52564      2.51762        -0.254675      0.440369     -0.067503
O       9.80068      0.11595     14.97699        -0.437413     -0.593236     -0.113979
O       9.72331      3.84974      6.70510         0.247095      0.465869     -0.071910
O       9.60219      0.04324      6.59565         0.147610     -0.604570     -0.059388
O       9.65377      3.87271     10.75957        -0.058176      0.573669      0.170365
O       9.73514      0.03114     10.85369         0.164278     -0.470084      0.008163
O       9.80798      7.86046      2.69343         0.333402     -0.713479     -0.072053
O       9.71781      7.74919     14.94967         0.685219      0.597659      0.108814
O       9.58796      7.77508      6.60613         0.783227     -0.087675     -0.086599
O       9.61438      7.74866     10.72277         0.424609      0.594272      0.490262
O       9.67160     11.64520      2.68777         0.275763      1.022734     -0.947722
O       9.58675     11.70903     15.02647         0.856431     -0.263523     -0.330671
O       9.66865     11.76180      6.78086         0.470063     -0.940260     -0.122962
O       9.66269     11.72564     10.88307         0.314296      0.516469     -0.045189
