  # total energy = -7880.97172675 
CRSYTAL
PRIMVEC
    15.6080000000000005    0.0000000000000000    0.0000000000000000
     0.0000000000000000   15.6080000000000005    0.0000000000000000
     0.0000000000000000    0.0000000000000000   16.6239999999999988
PRESSURE
-0.521784 -0.662616 -0.576961 -0.052311 -0.013804 -0.036948
PRIMCOORD
320 1
Pb       4.03224      3.91561      4.22891        -0.326635     -0.427124     -0.094871
Pb       3.92614      3.92936     16.58665        -0.086987      0.225522     -0.105093
Pb       3.94310      0.07151      4.08823        -0.494280     -0.054214      0.052514
Pb       3.83197     15.57645     16.48062        -0.054762      0.079502      1.302777
Pb      15.57174      3.86500      4.10859         0.058063     -0.550490      0.201656
Pb      15.57322      3.78901     16.60298         0.194037      0.111309      0.054581
Pb      15.55737     15.58327      4.07845         0.059306      0.595250     -0.014338
Pb       0.00255      0.02832     16.60565        -0.166948     -0.221186      0.327534
Pb       3.84114      3.84313      8.25474         0.267094      0.013435      0.258021
Pb       3.98454      0.05881      8.24763        -0.383021      0.052531     -0.508784
Pb      15.52394      3.92792      8.25418         0.300377     -0.550888      0.552910
Pb       0.03415     15.57591      8.24988         0.107838      0.217982      0.083486
Pb       3.70059      3.96672     12.64663         0.278711      0.107053     -0.954992
Pb       3.82312     15.48032     12.54335         0.456375      0.119387     -0.967226
Pb      15.57439      3.92390     12.55740         0.270826     -0.242592     -0.755746
Pb       0.14139     15.57847     12.47335        -0.639684      0.177658     -0.362139
Pb       3.74503      7.87166      3.99861         0.355957      0.586963      0.729861
Pb       3.87978      7.65658     16.58259        -0.140920      0.447262     -0.641710
Pb       0.04538      7.87563      4.06509         0.138173      0.344887      0.216779
Pb      15.52884      7.75179     16.60442         0.261768      0.186065     -0.302664
Pb       3.89779      7.76900      8.34268         0.273572     -0.143227     -0.258194
Pb      15.37726      7.74131      8.52343         0.276309     -0.029677     -0.316734
Pb       3.92520      7.84814     12.46390        -0.349381     -0.261386     -0.061866
Pb      15.41531      7.72662     12.50192         0.275452      0.100638     -0.024177
Pb       3.86597     11.70667      4.08337        -0.129678     -0.123457      0.153171
Pb       3.90314     11.66088     16.54126         0.034603      0.019687      0.510091
Pb      15.56505     11.77457      4.11638         0.530579     -0.545811     -0.211655
Pb      15.57631     11.80267      0.03067         0.142437     -0.315333     -0.434109
Pb       3.84504     11.87645      8.32174         0.101133     -0.372170     -0.542501
Pb      15.56346     11.65438      8.12896         0.315562      0.249417      0.393033
Pb       3.87756     11.70144     12.31597         0.057329     -0.105757      0.287946
Pb       0.04649     11.56250     12.41854        -0.235138      0.156649     -0.095580
Pb       7.75743      3.69366      4.14177        -0.179412      0.277931     -0.315438
Pb       7.76245      3.87058     16.54871        -0.125621     -0.171664      0.101742
Pb       7.77139     15.49047      4.14206        -0.206457      0.458780      0.005694
Pb       7.80789      0.06959     16.59734         0.010743     -0.511152     -0.169207
Pb       7.71741      3.81276      8.52679        -0.488837      0.329295     -0.805844
Pb       7.85554     15.57243      8.35002        -0.477034      0.219310     -0.842555
Pb       7.78087      3.69698     12.48038         0.407742      0.519350      0.747931
Pb       7.84958     15.59364     12.50965        -0.314238     -0.320348      0.191148
Pb       7.86410      7.80821      4.08166        -0.236850      0.000349     -0.321294
Pb       7.71293      7.82028     16.54114        -0.114059      0.218804      0.266212
Pb       7.93713      7.86726      8.21684        -0.779805     -0.384440      0.866222
Pb       7.92898      7.61856     12.41059        -0.398499      0.310119      0.308943
Pb       7.84905     11.73317      4.05316        -0.299126     -0.557480      0.256973
Pb       7.77028     11.73040     16.48434         0.212045      0.033933      0.613572
Pb       7.71585     11.71074      8.25379         0.094567     -0.239725     -0.199402
Pb       7.82345     11.57500     12.42603         0.299577     -0.173118      0.139695
Pb      11.76712      3.85021      4.30279        -0.051261     -0.257915     -0.170843
Pb      11.73708      4.08658      0.21043         0.195738     -0.653604     -0.273697
Pb      11.47825      0.00396      4.17266         0.907152     -0.086676     -0.175837
Pb      11.64560     15.59811     16.51263         0.548773     -0.493582      0.409214
Pb      11.64820      4.09607      8.41360        -0.049699     -0.218199     -0.488138
Pb      11.55273      0.05065      8.32783         0.646895     -0.022354     -0.086908
Pb      11.81424      3.75100     12.46153        -0.774726      0.208201      0.696946
Pb      11.58445     15.49094     12.36757         0.637407      0.179816      0.142159
Pb      11.69564      7.63074      4.00208        -0.190233      0.336920      0.639788
Pb      11.67602      7.82498      0.02238         0.427396     -0.069677     -0.208468
Pb      11.65807      7.81808      8.24580        -0.102539      0.430477      0.069726
Pb      11.47974      7.94190     12.50066         0.746992     -0.089823     -0.008288
Pb      11.78924     11.47335      4.27348        -0.113172      0.427052     -0.408758
Pb      11.85548     11.68301     16.58846        -0.650074      0.105825     -0.255283
Pb      11.76829     11.85761      8.41245        -0.260175     -0.745181     -0.222760
Pb      11.70681     11.73447     12.38504        -0.128375     -0.222304     -0.334713
Ti       1.91440      2.04129      2.10934         0.178434     -1.294971      1.622414
Ti       1.98798      1.92426     14.54686        -0.639121      0.487485     -0.148791
Ti       1.90430     13.69812      2.17194         0.334859      0.672397     -0.326129
Ti       1.86013     13.62886     14.63936         0.349424     -0.950538      1.112601
Ti      13.53621      1.90676      2.19741         0.913351     -0.176697     -0.193880
Ti      13.71133      1.86449     14.64023        -0.710373     -0.362446     -0.353270
Ti      13.56789     13.60995      2.26124        -0.507867      0.849182     -0.219304
Ti      13.67051     13.58367     14.59931        -0.508980      0.325131      1.179609
Ti       1.90853      1.94241      6.33091         0.543779     -0.366983     -0.075424
Ti       1.91328     13.61356      6.27673         0.625632      0.559086      0.173840
Ti      13.61650      1.90673      6.53846         0.188384     -0.383116     -0.130628
Ti      13.58766     13.59635      6.39513        -0.147107      0.982035      0.459219
Ti       1.93389      1.89567     10.53829         0.156250      0.554735     -0.385115
Ti       1.89073     13.52700     10.44584         0.856533      1.608667     -0.939278
Ti      13.64657      1.95107     10.56917         0.540375     -0.651667     -0.906378
Ti      13.74549     13.72007     10.52122        -0.721257     -0.051117      0.223619
Ti       2.02544      5.77587      2.28122        -1.237160      0.315981     -0.887854
Ti       1.82860      5.87622     14.69394         1.431277      0.417052      0.161558
Ti      13.72820      5.79187      2.29188        -0.493946     -1.145079     -1.277199
Ti      13.61994      5.67730     14.68038        -0.062206      0.663893     -0.450659
Ti       1.84627      5.84612      6.42163         1.221999     -0.482916     -0.169897
Ti      13.58703      5.86577      6.45509        -0.303479     -0.453088      0.008047
Ti       1.95735      5.84882     10.49993         0.250705     -0.635520      0.708993
Ti      13.57828      5.82164     10.65282         0.156111      0.751918     -0.687075
Ti       1.97006      9.80937      2.05512        -0.587461      0.142089      0.682989
Ti       1.94669      9.76476     14.62435        -0.158371     -0.216758      0.281898
Ti      13.62102      9.66127      2.20600         0.944111      0.576984     -0.126570
Ti      13.63631      9.66081     14.68433         0.023034      0.221509      0.808245
Ti       1.97834      9.66998      6.39438         0.516882      0.507802      0.069212
Ti      13.76439      9.67817      6.31162        -1.333189      0.151841     -0.135654
Ti       1.99832      9.70497     10.48895         0.274939     -0.535370     -0.443406
Ti      13.70917      9.71291     10.47795        -1.013700     -0.236895     -0.020346
Ti       5.81238      1.91690      2.08978        -0.458098      0.881801     -0.111107
Ti       5.84219      1.85508     14.71654         0.522276      0.225593     -0.941820
Ti       5.79653     13.68190      2.21895        -0.284341     -0.421596     -0.746060
Ti       5.82134     13.62836     14.66057        -0.029177      0.039464      0.655061
Ti       5.90443      1.99265      6.35565        -0.785744     -0.759605     -0.273964
Ti       5.80349     13.60723      6.24415        -0.093802      1.150632      0.478754
Ti       5.80005      1.87447     10.70280        -0.966996      0.284601     -1.136350
Ti       5.92587     13.62004     10.49548        -1.143699      0.929566     -0.586627
Ti       5.79000      5.93790      2.15619         0.923061     -1.306879     -0.492619
Ti       5.89044      5.81247     14.61205        -0.817677      0.291256      1.278450
Ti       5.81568      5.82248      6.32617        -0.823884     -0.046835      1.068739
Ti       5.85885      5.71054     10.67834        -0.425698      0.337360     -0.546169
Ti       5.87314      9.81384      2.14965        -0.705726      0.612696     -0.345620
Ti       5.75781      9.77710     14.61148         0.368297     -0.265523      1.093225
Ti       5.80820      9.71366      6.35409        -0.635316     -0.091367     -0.618973
Ti       5.94206      9.64182     10.57889        -0.735889      0.118290     -1.663363
Ti       9.69141      1.88211      2.13406         0.349605      0.172769     -0.093220
Ti       9.91624      1.93632     14.71683        -0.097900      0.082886      0.305304
Ti       9.72115     13.55916      2.26720         0.879899      0.204256     -0.539146
Ti       9.75415     13.58894     14.64054         0.404101     -0.275696      0.392497
Ti       9.74566      2.02173      6.38637        -0.479835      0.323275      0.034257
Ti       9.74885     13.66960      6.28540        -0.750632     -0.383875      1.233066
Ti       9.76189      1.92376     10.56659         0.344723      0.149060     -0.138053
Ti       9.65940     13.61710     10.41911         1.430682     -0.402519      0.463513
Ti       9.68721      5.71612      2.21181         0.265928      0.675920     -0.176938
Ti       9.77525      5.77203     14.81468         0.251321     -0.184661     -1.077882
Ti       9.57532      5.88900      6.28467         0.471255     -1.011880      0.473199
Ti       9.77392      5.79851     10.64660        -0.279429     -0.146516     -0.649866
Ti       9.76597      9.71003      2.21587        -0.390410      0.768055     -0.885796
Ti       9.66737      9.68983     14.82711         0.730101      1.718490     -0.599145
Ti       9.74549      9.75737      6.36091         1.100273      0.663920      0.454832
Ti       9.77348      9.72968     10.50143         0.782548      0.247774     -0.490528
O       1.80522      1.96685      0.37369         0.171459      0.039580     -1.256348
O       1.96038      1.94954     12.70194        -0.042459     -0.037557      2.173630
O       1.63657     13.82878      0.35725         0.317871     -0.808684      0.388865
O       1.82928     13.50403     12.88570         0.509890      0.369197     -0.788038
O      13.65537      2.01145      0.39853        -0.107741     -0.143565      0.323904
O      13.57040      1.85304     12.84637         0.092773      0.090643      0.272872
O      13.63227     13.77571      0.47211         0.368437     -0.890724      0.452069
O      13.67729     13.59545     12.85698        -0.107873     -0.270340     -1.094057
O       1.93608      1.84761      4.53378        -0.108787      0.365769      0.349646
O       2.02457     13.59441      4.48330        -0.306646      0.249957      0.275011
O      13.60214      1.91284      4.78289        -0.030130      0.172436     -0.816090
O      13.41776     13.66003      4.67632         0.469473     -0.092671     -1.302030
O       2.05082      1.82221      8.74289        -0.307135      0.248206      0.454743
O       1.95668     13.56120      8.62146        -0.157784      0.029815      0.752266
O      13.74063      1.92336      8.75186        -0.364972      0.333307      0.899770
O      13.73843     13.46153      8.78073        -0.050995     -0.051381     -0.937261
O       1.96542      5.82548      0.50968         0.191364      0.289699     -0.842350
O       1.97478      5.86903     12.93237        -0.668747     -0.275493     -0.502924
O      13.55444      5.75177      0.43317         0.335247     -0.222884      0.519106
O      13.74006      5.74986     12.86818        -0.137587      0.206648      0.251431
O       1.85062      5.57116      4.64624        -0.067494      1.225675     -0.227728
O      13.61498      5.72350      4.68753         0.172827      0.277213     -0.258179
O       2.05765      5.75182      8.74206        -0.366556      0.602508      0.045013
O      13.62126      5.93119      8.79145        -0.316872     -0.179930      0.284187
O       2.14913      9.76843      0.32365        -0.847278     -0.101487     -0.524176
O       2.13172      9.75086     12.82106        -1.062977      0.375134      0.324604
O      13.52430      9.61963      0.42330         0.311879     -0.054832      0.075925
O      13.63078      9.58884     12.93030         0.204918      0.488953     -0.450036
O       1.85602      9.71138      4.62041        -0.111802     -0.065519     -0.777425
O      13.82293      9.63650      4.46555        -0.433583      0.272709      0.833148
O       2.09692      9.69085      8.68487        -0.258978      0.255055      0.370981
O      13.63439      9.77059      8.66291         0.420769     -0.495175      0.270119
O       5.74627      1.91850      0.27679         0.286427     -0.062607      0.012993
O       5.92665      1.76242     12.87438        -0.184703      0.209899      1.178221
O       5.90947     13.60019      0.46220         0.212594      0.229343     -0.366974
O       5.67916     13.75396     12.90977         0.313477     -0.347241     -0.448740
O       5.92446      2.12158      4.52348        -0.174145     -0.309978      0.276713
O       5.62670     13.62428      4.47232         0.644449     -0.136072     -0.691157
O       5.91571      2.06818      8.81015         0.141697     -0.695747      1.215028
O       5.84975     13.72300      8.67038         0.265546      0.027602      0.882517
O       5.71283      5.83814      0.32462         0.032126      0.243637      0.999279
O       5.91872      5.80345     12.87114         0.184131      0.443907      0.407606
O       5.73813      5.68512      4.56199         0.485040      0.362222     -0.512873
O       5.75149      5.71375      8.92857         0.218867     -0.156916     -0.654033
O       5.79780      9.86077      0.35926         0.169578     -0.224251      0.491133
O       5.93118      9.85851     12.85250         0.148858     -0.100596     -1.014177
O       5.75067      9.76286      4.55624         0.619454     -0.013100     -0.073509
O       5.81984      9.71406      8.74452         0.137849     -0.035124      0.462262
O       9.86353      2.01602      0.33844        -0.549028     -0.517843      0.724897
O      10.01258      1.78711     12.94056        -0.807009      0.017768     -0.324547
O       9.79667     13.63568      0.53231        -0.168561      0.088305     -1.318911
O       9.86825     13.77689     12.86505        -0.285720     -0.642130     -0.423087
O       9.61644      1.95642      4.59122         0.048869     -0.221755     -0.006272
O       9.74825     13.82051      4.51059         0.115407     -0.646196     -0.090241
O       9.70701      2.05150      8.75229        -0.109006     -0.176988      0.581255
O       9.57052     13.60910      8.65278         0.338173      0.194627     -0.082018
O       9.92634      5.76305      0.39183        -0.594873      0.125574      0.244682
O       9.80226      5.93875     13.02332        -0.382166      0.321467      0.013852
O       9.47675      5.93825      4.49134         0.489090      0.164734      0.041418
O       9.72590      5.77610      8.86115         0.246164     -0.146965      0.065755
O       9.63427      9.82086      0.42151         0.870760     -0.304108      0.439389
O       9.73993      9.74859     13.01997        -0.045963     -0.292442     -1.048592
O       9.72940      9.78871      4.58856        -0.247224     -0.333474     -0.940656
O       9.90877      9.72576      8.76362        -0.490404     -0.188040     -1.162565
O       3.87792      1.87678      2.39199        -0.446955      0.212256      0.180746
O       3.87910      1.82137     14.80028        -0.350289      0.472871      0.273001
O       3.81374     13.78661      2.33970         0.106642     -0.055342      0.148793
O       3.88688     13.68977     15.26771        -0.042303     -0.505695     -1.720923
O      15.45940      2.07430      2.49434         0.775586     -0.063250      0.095024
O       0.00444      2.03129     14.82518         0.814803     -0.708673      0.174730
O      15.59938     13.63824      2.73724        -0.995026     -0.280702     -0.632148
O      15.56674     13.53342     14.87581         0.449866      0.177957      0.388574
O       3.96332      1.96608      6.63910        -0.563773      0.115622      0.090907
O       3.91301     13.56627      6.59367        -0.383858     -0.035055      0.371833
O       0.04812      1.93457      6.74342        -0.436906     -0.201511     -0.062589
O      15.48931     13.68470      6.53134         1.316288     -0.557802      0.110439
O       3.93528      2.05932     10.84860        -0.429557     -0.733963      0.105856
O       3.79174     13.69371     10.83253         0.744330     -0.388449     -0.148634
O      15.51731      1.94242     10.97539         0.561513      0.309772     -0.433021
O       0.05474     13.62974     10.79372        -1.054870     -0.154504      0.413084
O       3.87709      5.66502      2.54036         0.831497      0.987034      0.077485
O       3.81613      5.94073     14.87455         1.133268     -0.409149      0.491123
O      15.58727      5.59151      2.43252        -0.439307      0.796565      0.435600
O      15.57463      5.78106     14.99012        -0.208036      0.109538      0.313100
O       3.80841      5.69096      6.70830         0.740154      0.336753     -0.297672
O      15.55336      5.96308      6.93723         0.103866     -0.451538     -0.887890
O       3.96351      5.81925     11.02904        -0.945552     -0.217148     -0.162319
O      15.58353      5.83345     10.81387         0.624095      0.398163     -0.013826
O       3.78474      9.88506      2.40495         1.165751     -1.243059      0.823925
O       3.88200      9.69661     14.88016         0.590059      0.345207      0.069613
O      15.59676      9.67827      2.39678        -0.476939      0.047244     -0.009512
O       0.02937      9.78205     15.03219        -0.225268     -0.181324     -0.149329
O       3.91644      9.74816      6.45054         0.189974      0.520847      0.946598
O       0.04561      9.66473      6.69620        -0.982969      0.147335      0.105154
O       3.94294      9.76754     10.90065         0.443477      0.496095     -0.301623
O       0.03233      9.55171     10.83075         0.223153      0.357532     -0.071759
O       7.72566      1.89197      2.39493         1.441870      0.041300     -0.060757
O       7.74446      2.01764     14.97676         0.249979     -0.667281      0.128222
O       7.79796     13.49829      2.50499        -0.670486      0.683292      0.499913
O       7.86969     13.55847     14.89005        -1.244603      0.623554      0.073319
O       7.74437      1.88426      6.73190         1.168805      0.147258      0.109162
O       7.82932     13.75733      6.42993        -0.361261     -0.076891      0.448936
O       7.86417      1.74830     11.01470         0.334912      0.872580     -0.613973
O       7.84190     13.74439     10.74995        -0.930063     -0.201465      0.511257
O       7.71305      5.93967      2.42563         0.231374     -0.124957     -0.169325
O       7.81770      5.83873     15.05279        -0.466438      0.281218     -0.046699
O       7.72301      5.85859      6.84384         0.193869      0.519231     -0.742598
O       7.83332      5.77499     10.92012         0.029596      0.127017      0.296590
O       7.78257      9.86615      2.40385        -0.414514     -0.490801      0.621140
O       7.80540      9.75487     15.02143        -0.999588      0.125429     -0.041443
O       7.84200      9.65372      6.67413        -0.923856     -0.045974      0.025842
O       7.90647      9.76699     10.68181        -1.650594     -0.001205      0.879484
O      11.65657      1.89495      2.60479        -0.862094      0.144662     -0.179150
O      11.79342      1.97473     15.00427        -0.800361     -0.450111      0.065642
O      11.69183     13.61470      2.58199         0.151674      0.183983     -0.012859
O      11.71177     13.55286     14.96793         0.364256      0.355359      0.061829
O      11.63876      2.06270      6.65512        -0.351967     -0.465974      0.478955
O      11.63371     13.67470      6.76571         0.094350     -0.138557      0.226752
O      11.67863      1.83327     10.82008        -0.098665      0.506904     -0.176210
O      11.75768     13.54149     10.66342        -0.254328     -0.127313      0.344379
O      11.69377      5.81214      2.55444        -1.222301     -0.160346      0.159095
O      11.73297      5.70258     14.95790        -0.240750      0.458213      0.336127
O      11.61386      5.83143      6.70201         0.525910     -0.032112     -0.111417
O      11.68371      5.78265     10.90107        -0.092642      0.273751      0.054443
O      11.72250      9.72189      2.61927        -0.536524     -0.455154     -0.266752
O      11.70222      9.80563     15.02729         0.433068     -0.554444      0.132536
O      11.69950      9.67247      6.60750         0.191304      0.232507     -0.270006
O      11.70824      9.71772     10.77041         0.372577     -0.078803      0.799655
O       1.94080      3.92758      2.43996        -0.013952     -1.621170      0.305248
O       1.93269      3.89136     15.03072         0.384302     -0.569435     -0.677372
O       1.77502      0.04284      2.36734        -0.134422      0.096139      0.561049
O       1.97270     15.54028     14.84179        -0.547118      1.282844     -0.203092
O      13.42414      3.86828      2.72735         0.709991     -0.110703     -0.771393
O      13.68707      3.78868     14.84394         0.106171      0.925606      0.369774
O      13.64647     15.59563      2.52829         0.020319      0.080449      0.167768
O      13.73482     15.50951     15.02327        -0.349991      0.550246     -0.453424
O       1.91348      3.84160      6.66536        -0.452114      0.211121      0.325887
O       2.05703     15.54470      6.69856        -0.473385      0.040352     -0.310133
O      13.58894      3.84114      6.89010         0.385213      1.424669     -0.450973
O      13.69041     15.58222      6.88559        -0.883042     -0.059357     -0.330029
O       1.91323      3.89729     10.83791         0.096211      0.414766      0.202746
O       1.82761     15.60546     10.85246         0.504513     -0.259078      0.007031
O      13.51879      3.92038     10.89225         0.678114     -0.846428     -0.393899
O      13.67315     15.59690     10.68222         0.069717     -0.818377      0.343388
O       1.83854      7.78467      2.54034         0.689010     -0.340927     -0.102446
O       1.91759      7.84373     14.97606        -0.422913     -0.653741      0.227638
O      13.57540      7.64753      2.47552         0.506982      1.007946      0.328543
O      13.71639      7.71379     14.98661        -0.311024      0.154291      0.179556
O       2.11477      7.80986      6.60160        -0.549916     -1.352659      0.085662
O      13.61009      7.81676      6.63874         0.216811     -0.730061      0.249060
O       2.14652      7.85248     10.77942        -0.436837     -1.434083     -0.043515
O      13.61508      7.74792     10.95307         0.077639      0.036318     -0.340754
O       1.94361     11.73364      2.37675        -0.637755      0.068298      0.121628
O       2.03949     11.71482     14.94343        -0.342202     -0.131262      0.203850
O      13.58105     11.62389      2.43444         0.453371      0.323158      0.363745
O      13.74124     11.62863     15.07272        -0.466268      0.504455     -0.187382
O       1.94665     11.72436      6.63456        -0.344949     -0.360582      0.118679
O      13.52852     11.64009      6.54990         0.644483     -0.085673      0.283079
O       1.90641     11.68882     10.70686         0.016512     -0.877331      0.452460
O      13.75358     11.50258     10.79784         0.052080      1.500369      0.629206
O       5.88033      3.80990      2.33356        -0.223353      0.981137      0.353963
O       5.76157      3.91659     14.99962         0.099847     -0.174999     -0.423596
O       5.88139      0.01436      2.51101         0.038602     -0.560259      0.159551
O       5.82492     15.51439     15.10763         0.502203      0.928343     -0.466571
O       5.90032      3.89081      6.74043         0.045593      0.363779     -0.206696
O       5.75492     15.60027      6.42351         0.254211      0.063846      0.674152
O       5.93746      3.83261     11.12319         0.054652     -0.399728     -0.743009
O       5.81208     15.57359     10.94956         0.067120     -0.090327     -0.482462
O       5.73292      7.83480      2.40277        -0.135906     -0.233712      0.169668
O       5.85046      7.90779     15.02612         0.186352     -1.363400     -0.370024
O       5.68126      7.73489      6.61515         0.672580      0.198794      0.090517
O       5.86589      7.80592     10.80387         0.298660     -0.187265      0.549265
O       5.63629     11.72270      2.44160         0.704635     -0.224263      0.429315
O       5.82608     11.73341     14.87160        -0.067445     -0.283967      0.287903
O       5.93507     11.76426      6.68203         0.020231     -1.203518     -0.145667
O       5.95776     11.77750     10.67377        -0.182388     -0.317461      0.817013
O       9.67148      3.87523      2.42117         0.007257     -0.066128      0.278916
O       9.67008      3.85753     14.93675         0.271305      0.333847      0.146766
O       9.69783     15.60401      2.49596        -0.089074      0.239828     -0.031358
O       9.71316     15.60073     15.03455         0.196191      0.092626      0.130984
O       9.63646      4.00532      6.48977         0.041305     -0.954554      0.543998
O       9.78921      0.02221      6.73449        -0.149401      0.168728     -0.110679
O       9.74983      3.88286     11.05960        -0.022244     -1.171369     -0.674711
O       9.81885     15.52772     10.74388        -0.049842      0.444737     -0.151756
O       9.70837      7.79278      2.45661         0.102205      0.139002      0.212344
O       9.76377      7.87191     15.12017         0.135710     -1.882056      0.061394
O       9.78793      7.77856      6.75024        -0.515835     -0.168381     -0.400796
O       9.71333      7.77099     10.80955         0.209755     -0.092704      0.620655
O       9.74814     11.66684      2.52053         0.305766     -0.327194      0.641332
O       9.73860     11.70204     14.92014         0.077839      0.321361      0.310992
O       9.63736     11.66768      6.72279         0.476088      0.650441     -0.648252
O       9.75614     11.64895     10.79834        -0.070990      1.169523      0.438774
