  # total energy = -7879.05789264 
CRSYTAL
PRIMVEC
    15.6080000000000005    0.0000000000000000    0.0000000000000000
     0.0000000000000000   15.6080000000000005    0.0000000000000000
     0.0000000000000000    0.0000000000000000   16.6239999999999988
PRESSURE
-0.609172 -0.835337 -1.61071 0.245953 -0.332813 0.03216
PRIMCOORD
320 1
Pb       3.73791      3.83461      4.17096         0.618069     -0.042639     -1.198370
Pb       3.74557      3.73655     16.54839         0.252821      0.476250      0.142119
Pb       3.92997     15.44529      4.29974        -0.032586     -0.085552     -0.661267
Pb       4.01596      0.00719      0.04493        -0.223627     -0.007075     -0.386123
Pb       0.01471      3.91983      4.16878        -0.305825     -0.021121     -1.010835
Pb      15.60682      3.94930      0.01031         0.148265     -0.126747     -0.402809
Pb       0.07340     15.57773      4.31290         0.119182     -0.117346     -0.328506
Pb      15.59786     15.57423      0.03043         0.280637      0.196340     -0.880344
Pb       4.06880      4.02168      8.27788        -0.582962     -0.169069     -0.128034
Pb       3.88756     15.52874      8.40751        -0.085848      0.141792     -0.468638
Pb       0.09430      3.93765      8.27010        -0.422556      0.308339      0.312709
Pb      15.55956      0.02132      8.38973         0.389521     -0.192399     -0.483501
Pb       3.94536      3.81836     12.35610         0.005959      0.298994     -0.178719
Pb       3.95711      0.15703     12.39186         0.115043     -0.610780      0.131455
Pb      15.52656      3.89530     12.43503        -0.208882      0.093536     -0.474789
Pb      15.53364     15.49149     12.30140         0.033272      0.549456      0.350921
Pb       3.97203      7.67301      4.17705        -0.263022      0.174760     -0.632588
Pb       3.87883      7.85468      0.05407        -0.059638     -0.478462     -0.016547
Pb      15.47286      7.71059      4.15175         0.285860      0.337040     -0.087585
Pb      15.60768      7.77529      0.01277         0.118019     -0.322784      0.032345
Pb       3.86091      7.83680      8.29093         0.014098      0.209103      0.089472
Pb       0.15356      7.85291      8.06331        -0.465837     -0.781811      0.711063
Pb       3.78238      7.77723     12.45598         0.235944      0.196847     -0.713364
Pb       0.04425      7.73833     12.37950        -0.022386     -0.351566     -0.109815
Pb       3.98121     11.58627      4.28046        -0.079287      0.506292     -0.157851
Pb       3.89347     11.66104      0.03782         0.167344      0.508326     -0.781966
Pb       0.06716     11.63518      4.22354        -0.333885      0.260413      0.070998
Pb       0.00966     11.56708     16.55037         0.192760      0.449722      0.165972
Pb       3.90405     11.53323      8.39954         0.132929     -0.091852     -0.291658
Pb       0.02414     11.72875      8.38493        -0.138472      0.168910     -0.619478
Pb       3.77702     11.70104     12.56962         0.387364     -0.185710      0.315950
Pb      15.37058     11.80934     12.49358         0.655334     -0.227566     -0.300093
Pb       7.89110      4.04769      4.12722        -0.803787     -0.448694     -0.480545
Pb       7.77841      3.75164      0.11445        -0.179333     -0.010326     -0.408440
Pb       7.91497      0.05518      4.20303        -0.657330      0.072618     -0.342263
Pb       7.80875     15.45924     16.55499        -0.142812      0.325011      0.019803
Pb       7.90273      3.90693      8.11157         0.050927     -0.074786      0.044037
Pb       7.70114      0.00741      8.30692         0.177097     -0.119361     -0.256042
Pb       7.81636      4.02841     12.55592        -0.300380     -0.108645     -0.322676
Pb       7.76891      0.02147     12.37773        -0.002620      0.319295     -0.159708
Pb       7.83313      7.77063      4.17408        -0.264615     -0.129152     -0.420726
Pb       7.80957      7.59158      0.08313        -0.089809      0.234460     -0.256445
Pb       7.68114      7.75206      8.35618         0.648158      0.262304     -0.276211
Pb       7.65517      7.98860     12.57101        -0.107781     -0.105092     -0.323238
Pb       7.77743     11.61564      4.16135        -0.129352      0.417724     -0.311520
Pb       7.90073     11.58684      0.07329        -0.355712      0.302146     -0.813050
Pb       7.84937     11.58435      8.46059        -0.551000      0.080603     -0.090795
Pb       7.72898     11.82777     12.50254        -0.114683     -0.549265      0.456046
Pb      11.55866      3.93516      3.91760         0.425814     -0.345210      1.184603
Pb      11.61126      3.67513     16.51266         0.255119      0.858445      0.630602
Pb      11.93936      0.09483      4.16111        -0.908105     -0.214482      0.347006
Pb      11.79012     15.59394     16.61631        -0.178789     -0.140589      0.320754
Pb      11.68486      3.65484      8.11965         0.038919      0.890491      0.696681
Pb      11.82723     15.46001      8.33915        -0.605708      0.253041     -0.447050
Pb      11.52137      3.95315     12.33765         1.151161      0.102796     -0.020063
Pb      11.71091      0.08325     12.57717         0.047248     -0.374631     -0.948834
Pb      11.65532      8.08486      4.20105        -0.281015     -0.525516     -0.313964
Pb      11.76412      7.74193     16.56665        -0.433917     -0.133610      0.411469
Pb      11.71363      7.71188      8.31500        -0.195663     -0.304737      0.088327
Pb      11.87970      7.60290     12.41066        -0.375286      0.511967     -0.019051
Pb      11.61279     12.04010      4.08918         0.434561     -0.727716     -0.160784
Pb      11.59684     11.70951      0.06617         0.133506     -0.252176     -0.121367
Pb      11.51496     11.51284      8.16926         0.659699      1.049904      0.473946
Pb      11.67489     11.53474     12.54551        -0.351543      0.054956     -0.436276
Ti       1.88213      1.89295      2.19862         0.615058      0.971902      0.135802
Ti       1.84892      1.94356     14.56008        -0.025974      0.026478      1.215584
Ti       1.86162     13.67397      2.16039         0.945954      0.251892      0.088214
Ti       1.87408     13.65200     14.61774         0.652815      0.286579      1.170999
Ti      13.67327      1.94861      2.21789        -0.473880      0.433148      0.440980
Ti      13.57382      1.90690     14.55719         1.591042      0.473082     -0.241289
Ti      13.71469     13.71211      2.12138        -0.895250     -0.414569      1.527272
Ti      13.61086     13.51280     14.67210         0.504040      0.762008      0.340422
Ti       1.89110      1.96037      6.34428         0.908924     -0.957849      0.182771
Ti       1.92433     13.53370      6.39574        -0.223411      0.456649      0.184146
Ti      13.69815      1.94681      6.33265        -0.910084      0.175457     -0.555555
Ti      13.64000     13.62155      6.33565        -0.279122     -0.370885      1.119339
Ti       1.92377      1.87504     10.52027        -0.379334      0.003146     -0.452945
Ti       2.00604     13.56466     10.54250        -0.066461      0.990032     -0.581763
Ti      13.52839      1.95930     10.49024         0.691308      0.464146      0.269487
Ti      13.48753     13.57101     10.48476         0.561216      0.532610      0.523379
Ti       1.85279      5.95450      2.16701         0.654719     -1.453927      0.309346
Ti       2.03199      5.81954     14.51906        -0.988589     -0.130827      1.452284
Ti      13.50032      5.85666      2.23668         0.623399     -0.523594     -0.663556
Ti      13.68870      5.80246     14.69079         0.230951     -0.895546     -1.209975
Ti       2.00014      5.75901      6.24580        -0.431278      0.904233      1.033522
Ti      13.69272      5.81565      6.23783        -0.411615     -0.213742      0.895731
Ti       1.95351      5.76347     10.46409        -0.491088      0.878270      0.331048
Ti      13.59210      5.87225     10.39252         1.236103     -1.341738     -1.253153
Ti       1.88304      9.84785      2.27535         0.236951     -1.250212      0.191020
Ti       1.90808      9.65498     14.68967         0.655184      1.164348     -0.840290
Ti      13.57820      9.76753      2.33696        -0.331649      0.728561     -1.264168
Ti      13.62152      9.62129     14.76844         0.232289      0.021885     -0.882189
Ti       1.91179      9.73008      6.30021         0.716315     -0.165119      0.125449
Ti      13.59255      9.70615      6.37080         1.068869      0.428695     -0.078926
Ti       1.84460      9.77664     10.51609         1.523485     -0.868378     -0.161296
Ti      13.68018      9.69568     10.41685        -0.652801      0.206359     -0.048077
Ti       5.74252      1.93177      2.21787         0.660397      0.442115      0.005412
Ti       5.83692      1.96816     14.65005        -0.189723     -0.017124      0.426465
Ti       5.81311     13.64661      2.29721        -0.190743      0.526105     -0.538318
Ti       5.74032     13.63888     14.69725        -0.244397     -0.511576     -1.085048
Ti       5.72614      1.96723      6.25823         0.627219     -0.357128     -0.725922
Ti       5.77964     13.61505      6.39074         0.424903     -0.164860     -1.166771
Ti       5.95203      2.09494     10.37578        -0.255543     -1.235249      0.791789
Ti       5.84019     13.72698     10.59578        -0.353541     -0.153263     -0.534568
Ti       5.79411      5.91329      2.09923        -0.059068     -1.288652      0.759363
Ti       5.91591      5.88413     14.68033        -0.970134     -1.389972     -0.667365
Ti       5.84719      5.86958      6.28620         0.031661      0.059564      0.074186
Ti       5.90498      5.96557     10.41791        -1.828065      0.586766      0.493779
Ti       5.79058      9.79744      2.25133         0.248102     -0.896569      0.219803
Ti       5.83162      9.70454     14.75508         0.134125      1.517508     -1.684615
Ti       5.89696      9.73103      6.34355        -0.993160      1.029450     -0.225997
Ti       5.75874      9.89749     10.64752        -0.072244     -1.091355     -0.306035
Ti       9.67915      1.87937      2.19330        -1.017434     -0.002686     -0.329839
Ti       9.71229      1.89368     14.58111        -1.336711     -0.233277     -0.058425
Ti       9.67724     13.64478      2.23300         0.114001      1.329078      0.528802
Ti       9.80439     13.63099     14.63163        -0.588899     -0.395438     -0.126666
Ti       9.68397      1.81260      6.39008         0.874768     -0.261232     -0.001205
Ti       9.65002     13.60605      6.29019         0.780127      1.211369      1.093419
Ti       9.77629      1.94359     10.50942        -0.607054     -0.168210     -0.876557
Ti       9.70924     13.62437     10.50297         0.212885      0.461864      0.498049
Ti       9.69546      5.91305      2.08234        -0.261821     -0.595363     -0.208398
Ti       9.79477      5.82359     14.61390        -0.875658      0.599186      0.260689
Ti       9.86922      5.84704      6.31132        -0.646417      0.472219      0.192125
Ti       9.64951      5.95536     10.48814         1.245743     -0.241074     -0.369525
Ti       9.64777      9.73716      2.10848         1.226591      0.533853      0.541444
Ti       9.74900      9.66652     14.61627        -0.663989     -0.002112     -0.201805
Ti       9.73127      9.75727      6.36459        -0.749884     -1.255626     -1.011264
Ti       9.75044      9.79076     10.55497        -0.442236     -0.924156      0.055536
O       1.82760      2.05437      0.41802        -0.110467     -0.233091      0.048393
O       1.87721      2.05444     12.81900         0.382063     -0.178211     -1.303111
O       1.75049     13.77628      0.35252         0.075129     -0.235024      1.185632
O       1.89872     13.56583     12.85782         0.066226     -0.031336     -0.860128
O      13.49481      1.94091      0.45508         0.068829      0.136097     -1.123030
O      13.53701      2.04615     12.75707        -0.138863     -0.339959      1.165145
O      13.73594     13.81753      0.37840        -0.084138     -0.459153     -1.094052
O      13.44072     13.43461     12.89836         0.054469      0.270944     -0.247332
O       1.94662      2.00152      4.50091        -0.489315      0.249638      0.561685
O       1.95120     13.54289      4.59880        -0.473398      0.361546      0.350292
O      13.72899      1.86407      4.49131        -0.034658     -0.138410      0.835294
O      13.52731     13.71586      4.59292         0.578835      0.030109     -0.910559
O       1.83543      1.76691      8.72599         0.308021      0.472412      0.649647
O       1.89284     13.54149      8.72341        -0.087289      0.489615      0.073527
O      13.50123      1.96664      8.67891         0.298833     -0.451894     -0.213185
O      13.55597     13.65228      8.73430         0.530098     -0.113508     -0.774447
O       1.93240      5.79588      0.38654        -0.183194      0.749361     -0.119960
O       1.79657      6.01517     12.78479         0.438696     -0.770155     -1.069532
O      13.54368      5.75839      0.41444        -0.244423      0.463144      0.182680
O      13.60784      5.88262     12.83126         0.293898      0.177673      0.373693
O       2.09559      5.79840      4.50091        -0.570992     -0.282449     -0.923808
O      13.68426      5.88207      4.46046        -0.153992      0.043698      0.004364
O       1.95411      5.78562      8.69089         0.140909      0.239286     -0.557543
O      13.65007      5.91297      8.57969        -0.180467     -0.290808      0.584418
O       1.87160      9.61990      0.48631         0.037923      0.172885      0.092662
O       1.97879      9.81277     12.88028        -0.639080     -0.213454      0.516117
O      13.49971      9.67622      0.49438         0.210988      0.013263      0.122902
O      13.93976      9.40349     13.02083        -0.877031      1.104136      0.070094
O       1.87649      9.84581      4.54046         0.158226      0.113948     -0.780179
O      13.52430      9.59163      4.56791         0.114900      0.535137     -0.227348
O       1.96889      9.74820      8.69304        -0.075389      0.122776     -0.133992
O      13.61201      9.72434      8.65005        -0.100871      0.251946     -0.203814
O       5.74357      1.70196      0.38863         0.393075      0.787271      0.160179
O       5.90437      2.14536     12.87082        -0.296973     -0.536050     -0.693136
O       5.67725     13.55439      0.41000         0.451170      0.447614      0.566259
O       5.61974     13.56736     12.85815         0.525524      0.482693      0.323415
O       5.78285      2.00317      4.42683        -0.458264     -0.239811      1.537873
O       5.67951     13.48318      4.48685        -0.071820      0.690879      1.991215
O       5.93546      1.90908      8.61722        -0.416328      0.282243     -0.403306
O       5.96088     13.76896      8.79320         0.011821     -0.183414     -0.756836
O       5.66625      5.99208      0.34576         0.453597      0.106935     -1.517456
O       6.04373      5.88884     12.81442        -0.158792     -0.560920      0.558995
O       5.98878      5.95377      4.50258        -0.379019      0.164642      0.172804
O       5.59096      5.98113      8.58640         0.775168      0.093858      0.993251
O       5.78777      9.86255      0.46828        -0.033576     -0.200011     -1.123563
O       5.86664      9.83706     12.85473        -0.054635     -0.500174      1.050374
O       5.81836      9.80488      4.52187         0.213750      0.191239      0.308813
O       5.59705      9.69388      8.84172         0.353498      0.506542     -0.847946
O       9.61986      2.10473      0.38046         0.327449     -0.304130      0.122748
O       9.66407      1.74196     12.74822         0.306153      0.602667      1.570523
O       9.63050     13.67096      0.47402        -0.089719     -0.545436     -1.229289
O       9.92364     13.60342     12.84558        -0.071968      0.292265      0.385699
O       9.73531      1.65297      4.62927        -0.385672      0.363826     -0.902528
O       9.87438     13.77071      4.55592        -0.661322      0.094839     -0.829116
O       9.84342      2.02882      8.70176        -0.424503      0.224772     -0.757205
O       9.37699     13.41438      8.78017         0.737896      0.165955     -0.709585
O       9.73826      5.67255      0.28224        -0.063088      0.750482      0.656449
O       9.49918      5.88002     12.78358         0.422416      0.072739      0.221073
O       9.45725      6.05371      4.54910         0.640265     -0.227929      0.150205
O       9.77966      5.79109      8.72103        -0.303800     -0.242298     -0.653671
O       9.82498      9.89962      0.32998        -0.258965      0.107727     -0.683271
O       9.62923      9.54144     12.81768         0.321990      0.510786      0.062546
O       9.66998      9.62347      4.55132         0.005220      0.095026      0.446605
O       9.68901      9.76934      8.72545         0.339245      0.894270     -0.604975
O       3.85239      1.97850      2.34573        -1.405489      0.203932      0.494485
O       3.77124      1.96964     14.99630         0.420658      0.009294     -0.407831
O       3.77324     13.66584      2.57643        -0.376482     -0.174809     -0.514775
O       3.77119     13.64855     14.93484        -0.220037      0.208167      0.391161
O      15.50396      2.09164      2.45460         0.897615     -0.542409      0.050635
O      15.51730      2.10588     14.87324        -1.020226      0.164151      0.143684
O      15.53411     13.77872      2.56924         0.409327     -0.159159      0.101855
O      15.53966     13.56504     14.83983        -0.632394     -0.061396      0.222886
O       3.86653      1.97490      6.56827         0.293376      0.425483      0.205501
O       3.84401     13.66379      6.63475        -0.043024      0.063994      0.408234
O      15.59118      1.93906      6.75168        -0.357401      0.178028     -0.477367
O       0.00346     13.66820      6.72502        -0.323585      0.456152     -0.173376
O       3.93190      1.88205     10.75694        -0.239241      0.631252      0.091564
O       3.91257     13.83435     10.60758        -0.698518     -0.715278      0.519475
O      15.54301      1.82951     10.80154         0.308885      0.262521     -0.146746
O      15.47105     13.71461     10.81995         0.608092     -0.720127      0.020244
O       3.97391      6.02612      2.37595        -2.256382      0.348571      0.857460
O       3.82565      5.79513     14.78917         1.600175      0.347871      0.120171
O      15.47590      5.76545      2.41709         0.070007      0.638273      0.315365
O      15.58912      5.72198     14.85500        -0.772865      0.601290      0.530741
O       3.84020      5.78451      6.51397         1.314741      0.161097      0.344415
O       0.04790      5.82301      6.48554        -0.336634      0.008827      0.219628
O       3.84904      5.94400     10.75335         0.680071     -0.401065      0.444373
O      15.55914      5.70125     10.62338         0.053758      0.356090      0.710555
O       3.83686      9.64404      2.50230        -0.128914      0.615655      0.061419
O       3.87628      9.73197     15.00514        -0.099869     -0.461902      0.290213
O      15.55039      9.82922      2.63278        -0.854756     -0.604338     -0.338642
O      15.59449      9.63262     15.19069        -0.331267      0.247955     -0.420074
O       3.87144      9.87207      6.58310        -0.097802     -0.155810      0.177376
O      15.60196      9.61729      6.53119        -0.695194      0.292601      0.262053
O       3.83314      9.75474     10.88922        -0.128278      0.440780      0.140642
O       0.00338      9.87830     10.65705        -1.086615     -0.258271      0.471738
O       7.65943      2.14012      2.53723         1.017939     -0.492485     -0.192866
O       7.77632      1.79295     15.04145         0.481740      0.469269     -0.529372
O       7.70913     13.70887      2.71532         0.068786     -0.388473     -0.603889
O       7.68667     13.49511     14.83869         0.538774      0.693492      0.279956
O       7.75779      1.86471      6.56594         0.101641      0.348856      0.304063
O       7.78216     13.72073      6.49726        -0.728643     -0.142423     -0.019236
O       7.78793      1.95126     10.70859        -0.173094      0.000109      0.210861
O       7.80034     13.59949     10.99902        -0.178111      0.435229     -0.067299
O       7.76755      5.93481      2.34724         0.503090     -0.259725      0.024177
O       7.67853      5.79044     15.16431         1.086025     -0.002585     -0.409595
O       7.65396      5.96650      6.77678         1.167790     -0.044362     -0.080988
O       7.74974      5.91896     10.60310         0.019399     -0.169688     -0.104611
O       7.81356      9.89661      2.35858        -1.151253      0.310406      0.435951
O       7.80793      9.84151     14.82953        -0.879212      0.126351      0.916967
O       7.80351      9.84057      6.58320        -0.682195     -0.453422      0.524740
O       7.75888      9.86386     10.64108        -0.041317     -0.252015      0.647601
O      11.50269      1.90777      2.56399         0.934552      0.141734     -0.268446
O      11.58736      1.88389     15.02344         0.304891     -0.264907     -0.764024
O      11.65013     13.84950      2.47826        -0.167829     -0.752052     -0.185533
O      11.71015     13.69146     15.15804        -0.179560     -0.188403     -0.401811
O      11.63928      2.02284      6.55295         1.128682     -0.614575     -0.048373
O      11.70317     13.61061      6.60868        -0.085181     -0.456911      0.667862
O      11.66709      1.91920     10.79269        -0.126640     -0.161392      0.501411
O      11.63546     13.64964     10.55281        -0.808115     -0.236850      0.594701
O      11.54124      5.95049      2.50472         0.728858     -0.019240      0.085428
O      11.59979      5.99292     14.75598         0.041507     -0.085908      0.234550
O      11.70718      5.79453      6.45985         0.215469      0.495866      0.100297
O      11.72228      5.78965     10.71005        -0.844534      0.604353      0.742593
O      11.54591      9.87425      2.53067         0.965198     -0.443812      0.306842
O      11.67730      9.73302     14.70926         0.420214     -0.439138      0.672083
O      11.63335      9.76765      6.62618         0.871740     -0.091509      0.005888
O      11.68008      9.71600     10.86558         0.693815      0.115293     -0.060574
O       1.83433      4.01102      2.51837         0.607131     -0.832677      0.237828
O       1.93412      3.96198     14.87784        -0.183043     -0.712717      0.174666
O       1.84166      0.02656      2.61474        -0.166954     -0.045074     -0.364728
O       1.72451      0.07941     14.93204         0.141812     -0.750703     -0.240653
O      13.49777      3.86731      2.55027        -0.295648      0.618168     -0.115988
O      13.39327      3.95431     14.88896         0.240995     -0.999997      0.251378
O      13.52714      0.02215      2.37890         0.588055      0.261191      0.479214
O      13.68520      0.00022     14.77791        -0.608243      0.232994      0.323844
O       1.99866      3.86044      6.81459        -0.409891      0.142889     -0.732783
O       1.92164      0.10040      6.63406        -0.131679     -1.161299     -0.142440
O      13.68249      3.89347      6.48434         0.193573     -0.026461      0.306942
O      13.60988      0.02163      6.63292         0.214852     -0.179060      0.232972
O       1.99257      3.90698     10.78886        -0.077064     -1.030583      0.033843
O       2.02518     15.55376     10.91471        -0.836235      0.686942     -0.218497
O      13.52624      3.86968     10.68844         0.402037     -0.063214      0.361542
O      13.47405     15.57460     10.91782         0.294981     -0.357144     -0.247946
O       1.76579      7.75621      2.65566         0.198436      0.804888     -0.491031
O       1.95301      7.81492     14.83742        -0.344774     -0.599440      0.693658
O      13.46444      7.81458      2.52840         0.562945      0.066946     -0.149618
O      13.56856      7.67659     15.08353         0.386274      1.175757      0.298722
O       2.00037      7.78180      6.44801        -0.097495     -0.332272      0.627582
O      13.68210      7.79545      6.67698        -0.457477     -0.149355     -0.417480
O       1.90083      7.85410     10.79318        -0.216434     -0.089956     -0.055589
O      13.66832      7.80151     10.68722        -0.016877      0.028179      0.402413
O       1.74303     11.72949      2.49243         0.504901      0.078055     -0.461221
O       1.89195     11.68986     15.05424        -0.172273     -0.325301      0.006418
O      13.53022     11.76402      2.52240         0.247902     -0.052743     -0.178236
O      13.59869     11.61827     15.03974         0.100255     -0.193409     -0.164187
O       1.73920     11.62446      6.62205         0.408293      1.047754      0.299312
O      13.79409     11.68563      6.64659        -0.558589     -0.507154     -0.136141
O       1.95457     11.73420     10.76254        -0.005758     -0.210937      0.313978
O      13.58257     11.60683     10.93137        -0.044431      0.358278     -0.322864
O       5.71344      3.99478      2.41353         0.257817     -0.437796     -0.087965
O       5.92022      3.81748     14.93790        -0.457778      0.874399      0.505069
O       5.68507     15.58735      2.51499         0.309003     -0.174005      0.233451
O       5.62318      0.05788     14.87434         0.650689     -1.423884      0.083716
O       5.90489      3.99150      6.53077        -0.350258     -1.057954      0.433522
O       5.73557      0.02862      6.62105         0.100872     -0.499237     -0.216357
O       5.84721      3.94115     10.56401        -0.277390      0.892901      0.396639
O       5.84720      0.01019     10.81704         0.530870      0.711178      0.432004
O       5.89033      7.86167      2.46991         0.116545      0.891218      0.160414
O       5.90473      7.75145     14.86599        -0.321444      1.359016      0.364083
O       5.77223      7.92554      6.62476        -0.045610     -0.877652      0.015426
O       5.77351      7.89576     10.85997         0.522819     -1.351096     -0.137198
O       5.84099     11.75473      2.57352        -0.403670     -1.142290     -0.166326
O       5.57343     11.69488     14.87875         0.503008     -0.460115      0.700139
O       5.69623     11.74518      6.74197         0.801279     -0.022483     -0.077653
O       5.76150     11.78902     10.84172         0.016641     -0.325208     -0.119255
O       9.71730      3.98120      2.55433        -0.503289     -0.117387     -0.192876
O       9.69678      3.94207     14.80934        -0.080413     -1.439914     -0.290401
O       9.45355      0.02540      2.26314         0.129850      0.484801      0.552526
O       9.69364     15.54350     14.94246         0.127259      0.353813      0.088213
O       9.78445      3.91951      6.40179        -1.156566      0.029260      0.699517
O       9.83261     15.52482      6.79478        -0.518231      0.033169      0.046847
O       9.80963      3.80525     10.85593        -0.971010      1.485509      0.058071
O       9.69750      0.03855     10.64494        -0.162947     -1.740099      0.456743
O       9.55430      7.91124      2.26027         0.439255     -1.279900      0.166273
O       9.55411      7.77967     15.02963         0.412798      0.220458     -0.093540
O       9.84297      7.76906      6.80778        -0.631316      0.366066     -0.480547
O       9.83130      7.80265     10.56000        -0.454931     -0.430610      0.603833
O       9.66252     11.82483      2.50892         0.112726     -1.005768      0.197236
O       9.80909     11.72521     14.92755         0.111625     -0.280419      0.176023
O       9.69244     11.67486      6.47807         0.301246      0.165797      0.656155
O       9.73665     11.65749     10.89392         0.276141      0.476424      0.086017
