  # total energy = -7881.31926232 
CRSYTAL
PRIMVEC
    15.6080000000000005    0.0000000000000000    0.0000000000000000
     0.0000000000000000   15.6080000000000005    0.0000000000000000
     0.0000000000000000    0.0000000000000000   16.6239999999999988
PRESSURE
-0.452961 -0.846323 -1.08596 -0.165352 -0.270008 0.085464
PRIMCOORD
320 1
Pb       4.00078      3.99217      4.16914        -0.320187     -0.283982     -0.432978
Pb       4.07101      4.09953      0.13479        -0.259248     -0.759516     -0.158593
Pb       3.87600      0.03204      4.02194        -0.064920     -0.549673      0.254948
Pb       3.77258     15.57409     16.62049         0.167555     -0.268479     -0.383676
Pb       0.09122      3.83835      4.14981        -0.154166      0.193646     -0.295546
Pb      15.45597      3.82600      0.00910         1.008868     -0.133490     -0.417058
Pb      15.53630     15.57253      4.00036        -0.010124     -0.014061      0.238472
Pb      15.48041     15.55632     16.58505         0.301011      0.088961     -0.289702
Pb       3.67171      3.79906      8.34767         0.176453      0.354573     -0.300868
Pb       3.88874      0.07192      8.32912         0.482727     -0.288105     -0.711464
Pb      15.55773      3.78847      8.27088        -0.258886      0.701173      0.114897
Pb       0.14533     15.57412      8.19793        -0.667476      0.093450      0.014359
Pb       3.92594      3.95313     12.35633        -0.400854     -0.386802      0.844749
Pb       3.83855     15.40316     12.26908        -0.006189      0.738409      1.029615
Pb      15.58565      3.74971     12.42287        -0.004320      0.860016      0.555583
Pb      15.53595      0.30310     12.57070         0.334634     -1.304830      0.635781
Pb       3.80644      7.84593      4.34070         0.194447      0.052788     -0.831660
Pb       3.81066      7.73750      0.01912         0.284504      0.389157     -0.300334
Pb       0.25096      7.90432      4.23250        -1.230818     -0.562131     -0.200609
Pb       0.03115      7.73492      0.03077        -0.016732      0.466771     -0.387298
Pb       4.09597      7.69368      8.06599        -0.903648      0.181274      0.959432
Pb      15.42757      7.76223      8.54428        -0.202041     -0.058410     -0.471179
Pb       3.91734      7.88947     12.44864         0.076122     -0.235699     -0.092526
Pb       0.00243      7.96242     12.60059        -0.305399     -0.668293     -0.751060
Pb       3.84205     11.67006      4.08859        -0.208137      0.090784     -0.440057
Pb       3.92612     11.59448     16.43548        -0.177683      0.309416      0.708818
Pb      15.59076     11.65492      4.07862         0.054566      0.036079     -0.141602
Pb      15.54208     11.82123     16.55602         0.186209     -0.150643     -0.062590
Pb       3.82784     11.62663      8.06754        -0.011595      0.180203      0.667597
Pb      15.55794     11.62234      8.33976         0.368150     -0.281215     -0.256071
Pb       4.06009     11.69665     12.31247        -0.722512     -0.257282      0.069075
Pb       0.18681     11.51553     12.29451         0.005814      0.882645      0.436726
Pb       7.87597      3.75132      4.20302        -0.411488      0.346765     -0.369717
Pb       7.86735      4.00832      0.12080        -0.339043     -0.211154     -0.205579
Pb       7.79859     15.43744      3.98456         0.209390      0.303696      0.490758
Pb       7.92017      0.17317      0.10809        -0.536104     -0.454803     -0.502625
Pb       7.57719      3.99236      8.33149         0.830759     -0.444667      0.086028
Pb       7.86290     15.50667      8.36073        -0.289551      0.171573     -0.498739
Pb       7.65270      3.80620     12.39928         0.462751      0.023426      0.106889
Pb       7.65953     15.56386     12.56490         0.378153     -0.017085     -0.839051
Pb       7.69778      7.86692      4.16717         0.387408     -0.449159     -0.107180
Pb       7.87690      8.02948     16.59588        -0.951386     -0.934155      0.062080
Pb       7.80149      7.77158      8.26692         0.386774     -0.091736     -0.213601
Pb       7.86757      7.56373     12.31376        -0.363867      0.520794      0.336742
Pb       8.00332     11.67802      4.33833        -0.354073      0.212612     -0.738078
Pb       7.67048     11.66384      0.04480        -0.014179      0.361645     -0.501578
Pb       7.59507     11.74057      8.08170         1.055274     -0.008355      0.812814
Pb       7.67653     11.47771     12.41016         0.567358      0.415342     -0.353642
Pb      11.76212      3.95571      4.35168         0.151392     -0.682994     -0.459255
Pb      11.83143      4.09181      0.10972        -0.743301     -0.875484     -0.484195
Pb      11.48155     15.48862      4.16001         0.743552      0.072153     -0.381580
Pb      11.55376     15.52870      0.10568         0.499494     -0.134337     -0.473167
Pb      11.78317      4.08502      8.37745        -0.249247     -0.553309     -0.388741
Pb      11.63092      0.11415      8.24228         0.361546      0.198904     -0.160049
Pb      11.86860      3.81717     12.61443        -0.384278      0.071314     -0.336127
Pb      11.92160     15.52589     12.41342        -0.899490      0.298874      0.441642
Pb      11.72315      7.43149      4.00072         0.035540      1.508384      0.671944
Pb      11.35439      7.77419      0.01919         1.332709      0.146290     -0.411488
Pb      11.52805      7.96642      8.19710         0.710229     -0.385877      0.492322
Pb      11.54037      7.86541     12.66655         0.156738      0.047488     -0.729180
Pb      11.57631     11.29488      4.27254         0.709213      1.339492     -0.302674
Pb      11.80780     11.79350     16.51677        -0.006730      0.027124      0.184646
Pb      12.07597     11.95345      8.39145        -1.385582     -0.960128     -0.119478
Pb      11.63798     11.87380     12.40870        -0.161515     -0.322891      0.108787
Ti       2.00789      1.93644      2.18142        -1.526492      0.683107     -0.537666
Ti       2.01141      1.99818     14.67408        -0.919847      0.274048     -0.169535
Ti       1.94257     13.65168      2.17787         0.001018     -0.771397     -0.375226
Ti       2.03122     13.65937     14.51234        -1.121992     -0.159730     -0.724122
Ti      13.60234      1.98006      2.27449         0.338158     -0.571729     -0.252395
Ti      13.58557      1.93349     14.77759         0.090916     -0.101112      0.032464
Ti      13.58533     13.59268      2.32313        -0.151441      0.110697     -1.201441
Ti      13.68893     13.67624     14.58516        -0.163861     -0.510115     -0.424624
Ti       1.97875      1.90276      6.31029        -1.265391      0.042983     -0.170089
Ti       1.90988     13.51484      6.30875        -0.043934      0.617324     -0.051792
Ti      13.68578      1.89744      6.31767        -0.866486      0.438701      0.690394
Ti      13.73773     13.66564      6.31336        -0.488509      0.163492     -0.701102
Ti       1.90692      1.92003     10.57176         0.372042     -0.063451      0.905744
Ti       1.92479     13.67559     10.39489        -0.248454     -1.370605      1.358004
Ti      13.62241      1.99828     10.47045        -0.159322     -0.274720     -0.061767
Ti      13.78020     13.66575     10.48554        -0.403187      0.520971      1.544286
Ti       1.95719      5.83491      2.23409        -0.719795     -0.327327      0.300096
Ti       1.95232      5.84681     14.59892        -0.241295     -0.329434     -0.229489
Ti      13.70692      5.85050      2.13198         1.063822     -0.101010      1.696578
Ti      13.63604      5.85718     14.67783         0.205705      0.442153     -0.355253
Ti       1.79643      5.80448      6.41513         0.111673     -0.080009      0.628908
Ti      13.59887      5.88350      6.33429         0.593265      0.032386      0.911120
Ti       1.82818      5.77776     10.59822        -0.661108      0.858322     -1.202113
Ti      13.57113      5.92563     10.57263         0.589985      0.389960     -0.340244
Ti       1.93573      9.70323      2.17668        -0.084929      0.795125     -0.409700
Ti       1.93054      9.78063     14.65330        -0.203590     -0.196327      0.827364
Ti      13.65025      9.69226      2.25651         0.312031      0.010406     -0.301434
Ti      13.64178      9.69276     14.71030         0.149866      0.370807      0.190127
Ti       1.85784      9.60249      6.46507        -0.415637      0.798012     -0.717364
Ti      13.60313      9.75464      6.28477         0.530964     -0.587090     -0.107445
Ti       1.97867      9.65014     10.36505        -0.060697      0.261429      0.930731
Ti      13.52259      9.81021     10.65555         0.282010     -1.194063     -0.776867
Ti       5.83363      1.88887      2.20629         0.156246      0.790740     -0.755478
Ti       5.83115      1.90321     14.73851        -0.302296      0.070466      0.301665
Ti       5.85589     13.55996      2.22333        -0.781760     -0.511393     -0.772751
Ti       5.84563     13.62198     14.67850         0.060289     -0.050002      0.297466
Ti       5.83419      1.91213      6.28495        -0.081253     -0.809942      0.578954
Ti       5.74864     13.56854      6.20662         0.365080      1.948703      1.104497
Ti       5.79104      1.92572     10.51142         0.508493     -0.406683     -0.769521
Ti       5.83603     13.59674     10.45517         0.827027     -0.001569     -0.660881
Ti       5.84627      5.90459      2.20323         0.433488     -0.302171     -0.296498
Ti       5.84190      5.80194     14.69236        -0.207986      0.148085     -0.107931
Ti       5.78630      5.69900      6.26615         0.165283      0.771758      0.018691
Ti       5.73532      5.79669     10.45752         0.760297      0.624872      0.992737
Ti       5.84676      9.71577      2.31573        -0.261439      0.461094     -1.263584
Ti       5.88604      9.62652     14.63050        -0.534079      0.318191      0.445313
Ti       5.84547      9.67543      6.29478        -0.055226     -0.233741     -0.620991
Ti       5.85450      9.62113     10.34128         0.120380      0.341154      0.208720
Ti       9.74893      1.95262      2.21455         0.379540      0.265448      0.871137
Ti       9.74654      1.93019     14.67120         0.650282      0.243969      0.424757
Ti       9.75200     13.51673      2.18065         0.538550      0.420956      0.093651
Ti       9.68576     13.65588     14.66408         0.036033     -0.564281      0.263924
Ti       9.66346      2.04073      6.39290         0.599405     -0.297302     -0.214426
Ti       9.80303     13.66660      6.42293        -0.214676     -0.944165     -1.313210
Ti       9.79420      1.90080     10.56149        -0.783116      0.214107     -0.106400
Ti       9.75337     13.70448     10.51392        -1.499887     -0.537112     -0.144232
Ti       9.72298      5.83090      2.23874        -1.091401     -0.328222      0.755120
Ti       9.65255      5.71023     14.69689         0.312309      0.210072      0.236329
Ti       9.68775      5.78836      6.38241         0.095156      0.187249      0.239131
Ti       9.76930      5.67418     10.56549        -0.575803      0.804239     -1.061815
Ti       9.81321      9.72645      2.14932        -0.631381     -0.358828      1.510433
Ti       9.79101      9.81247     14.65449        -0.390312      0.527854     -0.176687
Ti       9.74935      9.80268      6.34204         0.027491     -0.278433      0.679212
Ti       9.76184      9.77235     10.45454        -0.476319     -0.112553     -0.770983
O       1.88274      1.99135      0.39458         0.079697     -0.307305      0.095120
O       1.89434      1.87582     12.83447         0.056521      0.070134      0.457778
O       2.06608     13.57288      0.40588        -0.498984      0.247920     -0.244847
O       1.87858     13.59301     12.67713         0.426348     -0.058617      1.039736
O      13.76850      2.05144      0.37552        -0.663587     -0.433616      1.379918
O      13.75719      1.93819     12.92450        -0.750872      0.327067     -0.127598
O      13.51589     13.67278      0.42685         0.252517     -0.055704      0.731088
O      13.62904     13.65160     12.75345        -0.164449     -0.095664      0.693169
O       1.86758      2.01889      4.56329         0.205118     -0.366653     -0.504000
O       1.89875     13.62553      4.54574        -0.146877     -0.151894     -0.019623
O      13.62089      1.75468      4.58206         0.075361      0.924055     -0.602372
O      13.78882     13.59114      4.52070        -0.159196      0.036040      0.345199
O       1.91241      1.90820      8.80996         0.182665      0.060233     -1.188151
O       1.97142     13.57882      8.63471         0.171943      0.328181     -0.469639
O      13.50992      1.95965      8.71752         0.424189     -0.298108     -0.109410
O      13.65406     13.67730      8.71836        -0.297161      0.027915     -0.865952
O       1.86235      5.97385      0.47799         0.247654     -0.234790     -0.736788
O       2.05348      5.88175     12.79604        -0.034673      0.222060      0.375313
O      13.69817      5.64590      0.36216         0.014631      0.616510     -0.251838
O      13.45706      5.77193     12.89048         0.113800      0.018749      0.283470
O       1.81729      5.79907      4.63345         0.321930      0.305120     -0.227572
O      13.56980      5.82594      4.55881        -0.345208     -0.003989      0.150453
O       1.68255      5.63303      8.74252         0.760617      0.324983      0.793595
O      13.61223      6.02352      8.68910         0.011041     -0.578871      1.531725
O       1.87261      9.70794      0.38827         0.261525     -0.134762      0.342348
O       1.79439      9.65372     12.85736         0.299575      0.021230     -0.344768
O      13.45156      9.64930      0.52966         0.518971      0.199432     -1.038618
O      13.58542      9.63751     12.89940         0.236640      0.438164     -0.400687
O       1.93643      9.60992      4.59522        -0.231923      0.160787      0.501977
O      13.58074      9.79696      4.47872         0.262416     -0.116036      0.614657
O       1.97730      9.72810      8.62026        -0.044407     -0.013998     -0.691699
O      13.60027      9.73515      8.86538        -0.161952      0.104243     -0.377997
O       5.85077      1.94085      0.39306        -0.032887     -0.026660      0.703635
O       5.82605      1.86899     12.94907         0.092276      0.102802      0.084209
O       5.75571     13.40227      0.42721         0.210580      0.477671      0.193299
O       5.78634     13.49227     12.86914         0.244758      0.490097     -0.285871
O       5.74526      2.04334      4.50803         0.107756     -0.413427     -0.000002
O       5.77937     13.71867      4.48300         0.227067     -0.211705     -0.548472
O       5.73933      2.00369      8.70820        -0.084307     -0.401542      0.236929
O       5.70520     13.53091      8.65704         0.432147      0.129227      0.270270
O       5.86499      5.86259      0.35129        -0.480340     -0.267105      0.899864
O       5.79157      5.87230     12.89143        -0.118273     -0.280374     -0.113288
O       5.74029      5.84509      4.50241        -0.034071     -0.153918     -0.244851
O       5.90999      5.95512      8.70975        -0.410438     -0.434866     -0.826248
O       5.84933      9.70654      0.44240         0.203884      0.234679      0.708779
O       5.85990      9.62269     12.85448        -0.185425      0.439935     -0.151091
O       5.79553      9.62729      4.48750        -0.089668      0.099877      0.443343
O       5.80554      9.54366      8.52195         0.320714      0.633646      0.432834
O       9.79638      1.95787      0.45448        -0.369081     -0.341797     -0.147732
O       9.70638      2.09134     12.92837         0.057015     -0.334495     -0.656121
O       9.85115     13.65592      0.38876        -0.126690      0.007171      0.393745
O       9.61020     13.59957     12.88726         0.274395     -0.032265     -0.036195
O       9.55195      1.97652      4.54352         0.482437     -0.005454      1.062799
O       9.76150     13.50780      4.48692        -0.340564      0.497098      1.515932
O       9.62644      1.81973      8.75779         0.305478     -0.300311      0.237469
O       9.71532     13.67614      8.69423        -0.066035      0.321262     -0.098059
O       9.64358      5.83338      0.47455         0.334525      0.106443     -0.804478
O       9.57035      5.71732     12.91935         0.521641     -0.022447     -0.053718
O       9.78720      5.64449      4.58176        -0.093546      0.304425      0.190345
O       9.60686      5.72870      8.73464         0.335073      0.550163      0.417045
O       9.66624      9.61476      0.36946         0.194625      0.236410      0.097472
O       9.83485      9.85667     12.87488        -0.275248     -0.152231      0.105640
O       9.77103      9.77664      4.50784        -0.289683      0.002357      0.344558
O       9.77865      9.73676      8.61633        -0.273173     -0.464923      0.383541
O       3.82743      2.02488      2.49150         0.991452     -0.390813      0.089257
O       3.82730      1.89835     15.08312         0.481379      0.359972     -0.388490
O       3.88061     13.62686      2.48685         0.137740     -0.159049      0.566530
O       3.86341     13.69169     14.87796         0.141331     -0.548711      0.044814
O      15.55732      1.84042      2.54676        -0.391927      0.326202     -0.182206
O      15.55827      1.95383     14.94369         0.298321     -0.224391      0.267217
O      15.58604     13.75823      2.37393        -0.106272      0.018403      0.257348
O      15.54871     13.64133     14.92419         0.325653     -0.042328      0.358456
O       3.78262      1.84876      6.62211         1.295987      0.263104      0.431174
O       3.82591     13.52050      6.48932         0.467720      0.138357      0.384747
O      15.54323      2.04383      6.72397         0.529324     -0.860232     -0.226257
O      15.59768     13.59535      6.68553         0.297038      0.145804      0.223453
O       3.86556      1.93896     10.81210        -0.373983     -0.202763      0.021578
O       3.90142     13.61632     10.79933        -0.460798     -0.364411     -0.308840
O      15.57981      1.78314     10.84243        -0.160692      0.883939     -0.499732
O      15.55692     13.47959     10.58173         1.031194      0.219064      0.205241
O       3.84153      5.75577      2.43452         0.103581      0.328914      0.185750
O       3.87105      5.71100     15.07838        -0.085605      0.622985     -0.300445
O      15.57187      5.83465      2.51554        -0.595759     -0.038781     -0.087113
O      15.57319      5.80780     14.85183        -0.170700      0.602799      0.189298
O       3.88116      5.85865      6.63386        -0.326438      0.002058      0.010381
O      15.53472      5.88274      6.68020        -0.227808     -0.102599     -0.135381
O       3.85246      5.67554     10.77876        -0.203501      0.729872     -0.414854
O      15.55887      5.85721     10.98957        -0.292919     -0.088316     -0.263648
O       3.82279      9.81160      2.48259         0.446336     -0.091205      0.298902
O       3.82471      9.67710     14.94507         0.637959      0.344988     -0.225744
O      15.60329      9.60341      2.49038        -0.260914      0.198991      0.268844
O      15.55700      9.70619     15.08358         0.396032      0.024232     -0.380110
O       3.85044      9.62806      6.51664         0.838355      0.110172      0.299179
O      15.51222      9.72184      6.69625         0.510878     -0.019660     -0.051984
O       3.91814      9.67912     10.74150        -0.103721      0.063231      0.076114
O      15.58452      9.74889     10.70386        -0.100718     -0.158485      0.476653
O       7.72784      1.82773      2.49150         0.141907      0.213924     -0.067526
O       7.86850      1.94012     15.02756        -1.225998     -0.174971      0.119550
O       7.80130     13.55200      2.49480         0.162107      0.427126     -0.087317
O       7.73925     13.63361     15.01539         0.053226      0.198969     -0.060247
O       7.70831      2.00391      6.62883        -0.033417     -0.155849      0.056938
O       7.79882     13.55844      6.59680        -0.533088      0.276603      0.066280
O       7.71907      1.98411     10.89462        -0.082724     -0.419672     -0.123945
O       7.73341     13.66596     10.78409        -0.139803      0.082560     -0.058478
O       7.73226      5.90265      2.43378        -0.070405      0.018425      0.479551
O       7.75132      5.75335     15.07467         0.677495      0.149003     -0.410320
O       7.69338      5.67513      6.58095         0.676194      0.430757      0.137278
O       7.72694      5.75026     10.75368        -0.187154      0.088770      0.500158
O       7.76412      9.59359      2.61508         0.325195      0.442307     -0.610776
O       7.78071      9.78855     14.91642        -0.374541     -0.194715      0.195717
O       7.82208      9.70773      6.50453        -0.753858      0.223127      0.180604
O       7.80646      9.68237     10.71835        -0.895202     -0.231286      0.043682
O      11.63883      1.90198      2.63618        -0.184968      0.391216     -0.446510
O      11.67548      1.87749     15.03695         0.407929     -0.090207     -0.271007
O      11.67825     13.49619      2.61275        -0.203837      0.269891     -0.319108
O      11.72761     13.55905     14.90834        -0.630138      0.288957     -0.205063
O      11.63643      2.14914      6.68783        -0.312359     -1.273162     -0.258995
O      11.73574     13.62940      6.64070        -0.386655      0.133307      0.086058
O      11.72001      1.91947     10.83794        -0.162648      0.076706      0.133183
O      11.55070     13.75140     10.80217         1.499292     -0.517250      0.126555
O      11.66180      5.69237      2.43811        -0.045762      0.210015      0.005216
O      11.66418      5.94360     15.10986        -0.352848     -0.201554     -0.327775
O      11.65160      5.76773      6.72379        -0.174214      0.253297     -0.528687
O      11.65346      5.60688     10.84019         0.610296      0.644196     -0.085436
O      11.68307      9.64679      2.54976        -0.856229      0.295511     -0.181114
O      11.68300      9.73005     14.94710        -0.486236     -0.038827      0.203314
O      11.70306      9.76098      6.58113        -0.462425      0.377607      0.001627
O      11.59517      9.70074     10.78491         1.110079     -0.188304      0.526595
O       1.79822      3.92699      2.51543         0.348769     -0.723228     -0.013588
O       1.79893      3.94595     14.77699         0.614658     -0.777551      0.387974
O       2.03056     15.59026      2.46037        -0.175203      0.479943      0.057261
O       1.90617     15.50633     14.86048        -0.038081      1.038465      0.494353
O      13.55807      3.87248      2.66267         0.401889     -0.547994     -0.515055
O      13.52076      3.88867     15.01482         0.085091      0.295836     -0.365637
O      13.46361     15.57363      2.63703         0.370302      0.142770     -0.585979
O      13.63497     15.60166     14.92190         0.019688     -0.399554      0.185545
O       1.91977      3.86756      6.65776        -0.020205      0.028036      0.330416
O       1.85823     15.59525      6.64876         0.202550     -0.431671      0.063723
O      13.63460      3.90347      6.64525        -0.033379      0.554833     -0.071464
O      13.65711     15.58189      6.58957        -0.041130      0.037022      0.564038
O       1.83980      3.82583     10.83531         0.149963     -0.136870      0.182514
O       1.87364     15.51680     10.80298         0.395844      0.229766     -0.553495
O      13.74258      3.88920     10.74845        -0.226739     -0.328945      0.281021
O      13.61875     15.58413     10.90543         0.351400     -0.087879     -0.740357
O       1.89870      7.78220      2.62187         0.674834     -0.141649     -0.273762
O       2.03124      7.81984     15.01349        -0.746653     -0.904558     -0.297106
O      13.59893      7.69360      2.49773        -0.282398     -0.125647     -0.162900
O      13.68778      7.84087     14.97439        -0.221638     -1.443790      0.107610
O       1.87828      7.77722      6.72345         0.090447     -0.951309     -0.119961
O      13.55053      7.88608      6.68638         0.080825     -0.801308     -0.358120
O       1.83960      7.74320     10.63782         0.484537      0.132538      0.442525
O      13.62604      7.79171     10.92438        -0.231046     -0.471585     -0.102108
O       1.81215     11.70537      2.53367         0.261631     -0.486297      0.055812
O       1.89859     11.69714     14.80719         0.039993     -0.147591      0.340771
O      13.78384     11.65579      2.46328        -0.218692      0.104138      0.051129
O      13.67717     11.66223     15.00021        -0.188440      0.339455      0.019671
O       1.91021     11.58505      6.66863        -0.115667      0.666124     -0.147672
O      13.71713     11.73245      6.69152        -0.421305     -0.399601      0.143379
O       1.91302     11.60510     10.69199         0.390122      0.357035      0.167425
O      13.47812     11.70106     10.76018         0.013507      0.676134      0.181414
O       5.73931      3.94905      2.52699         0.516845     -0.671997     -0.420043
O       5.85673      3.87608     15.00264        -0.224623     -0.523093      0.009704
O       5.83773     15.55745      2.46263        -0.346326      0.460990      0.055424
O       5.71620     15.54059     15.03534         0.734224      0.590059     -0.133273
O       5.68145      3.85626      6.65100        -0.042983     -0.213836     -0.038174
O       5.78658     15.55723      6.58169        -0.135094      0.333270      0.269226
O       5.73578      3.87903     10.80153         0.409338     -0.091638     -0.024222
O       5.78024     15.57182     10.69178         0.024220     -0.073668      0.348024
O       5.69006      7.81423      2.53703         0.092931     -0.451236      0.132023
O       5.74250      7.75950     14.92479         0.274475      0.091501      0.207772
O       5.96169      7.77465      6.52479        -0.514447     -0.443480      0.194864
O       5.77870      7.78572     10.77332         0.062074     -0.668124     -0.044913
O       5.90221     11.70426      2.66870        -0.347485     -0.853273     -0.215675
O       5.77484     11.66752     14.98770         0.205172     -0.436477     -0.374370
O       5.82156     11.67233      6.48686        -0.085146     -0.758975      0.126220
O       5.86238     11.60281     10.75512        -0.156142     -0.020522     -0.081272
O       9.50551      3.86804      2.53738         0.577449     -0.151567     -0.505699
O       9.91415      3.86854     15.10675        -0.724522      0.671409     -0.246608
O       9.73486     15.51944      2.42365        -0.052293      0.361276      0.342683
O       9.69652     15.58840     15.06895         0.181881     -0.297455     -0.222138
O       9.67313      3.87681      6.83066        -0.198459     -0.044235     -0.642915
O       9.69490     15.55247      6.66135         0.160763      0.570451     -0.089113
O       9.71929      3.83568     10.75554        -0.238658     -0.550698      0.424430
O       9.69961      0.01942     10.94460        -0.322863     -0.221260     -0.245274
O       9.71283      7.74317      2.54153         0.391419     -0.037413     -0.185715
O       9.64614      7.82988     14.90419         0.321089     -0.441108      0.196246
O       9.73133      7.75425      6.61774        -0.315454     -0.345436     -0.061037
O       9.73825      7.72670     10.95127         0.251459     -0.231679     -0.352888
O       9.67061     11.61961      2.42434         0.065504     -0.782622     -0.002267
O       9.62844     11.73181     15.13244         0.548681     -0.505536     -0.615692
O       9.67069     11.67743      6.57295         0.173906      0.053909      0.010507
O       9.71851     11.62806     10.73206         0.018349      1.105883      0.398986
