  # total energy = -7882.41658958 
CRSYTAL
PRIMVEC
    15.6080000000000005    0.0000000000000000    0.0000000000000000
     0.0000000000000000   15.6080000000000005    0.0000000000000000
     0.0000000000000000    0.0000000000000000   16.6239999999999988
PRESSURE
-0.532971 -0.432999 -0.490884 -0.189798 0.247963 -0.081602
PRIMCOORD
320 1
Pb       3.94355      3.80676      4.10410        -0.131182      0.727036      0.180027
Pb       4.02318      3.97077      0.05907        -0.241946     -0.232662     -0.331832
Pb       3.91141     15.58536      3.99557        -0.185840     -0.085996      0.028960
Pb       3.86458     15.57097     16.55734         0.042095     -0.085489     -0.175646
Pb       0.03732      3.87033      4.09381         0.085727      0.361520      0.807748
Pb      15.59042      3.79172     16.60652        -0.315726      0.402731     -0.302986
Pb      15.57565     15.48900      4.01341        -0.007714     -0.086172      0.562368
Pb      15.58088     15.58872     16.56624        -0.124205     -0.201131     -0.079533
Pb       3.78032      3.77658      8.24512         0.717680      0.170009      0.297358
Pb       3.84222     15.57819      8.14944         0.482214     -0.385706      0.284926
Pb      15.47594      3.83176      8.27025         0.203611      0.521650      0.024121
Pb      15.54642     15.55277      8.21143        -0.199994     -0.331213      0.544560
Pb       3.76728      3.85675     12.47909         0.611182     -0.001350     -0.113604
Pb       3.86555     15.55193     12.53088         0.365091      0.045870     -0.173247
Pb       0.07120      4.02661     12.54347        -0.164236     -0.513462      0.069809
Pb       0.06935      0.13658     12.64763        -0.096995     -0.201215     -0.425110
Pb       3.85217      7.87202      4.04161         0.044679     -0.673733      0.483373
Pb       3.89489      7.76772     16.51999        -0.211152      0.209843      0.499859
Pb      15.55258      7.85121      4.14868         0.260649     -0.354007     -0.209530
Pb      15.57254      7.75328     16.51463         0.793331     -0.466087      0.910846
Pb       3.80348      7.72792      8.30458         0.402482      0.118874     -0.259821
Pb      15.33218      7.70781      8.55097         0.677632     -0.117708     -0.576657
Pb       3.94180      7.76439     12.37183        -0.438223      0.452243     -0.061269
Pb      15.50899      7.83202     12.50142         0.312588      0.221741      0.158375
Pb       3.83551     11.72249      4.01330         0.107483     -0.266344      0.455792
Pb       3.81893     11.73932     16.60030         0.399651     -0.162572     -0.400682
Pb      15.52016     11.63582      4.01634         0.426396      0.364892      0.243819
Pb      15.55248     11.72260     16.54640         0.245648      0.070342      0.066873
Pb       3.84605     11.78435      8.28107         0.062669     -0.688863     -0.358561
Pb       0.02181     11.67734      8.23763         0.023073     -0.340891      0.327648
Pb       3.89179     11.63280     12.35391        -0.138518     -0.217677      0.312340
Pb       0.09869     11.71186     12.45698        -0.354820     -0.058243      0.195290
Pb       7.77226      3.72240      4.15359         0.399297      0.701124     -0.366788
Pb       7.79595      3.99090     16.55293         0.342235     -0.573841      0.761834
Pb       7.72735     15.54528      4.13374         0.488247     -0.189981     -0.407318
Pb       7.79890      0.13613     16.61461         0.252813     -0.502903     -0.034089
Pb       7.74091      3.83200      8.37470        -0.254509     -0.058997     -0.083195
Pb       7.84643      0.02777      8.20023        -0.103058     -0.112009      0.159369
Pb       7.82231      3.72272     12.40088        -0.489487      0.527649      0.492821
Pb       7.69864     15.55118     12.40941         0.254850      0.286555      0.489272
Pb       7.83431      7.83612      4.17849         0.170813     -0.687005      0.015749
Pb       7.61977      7.74576     16.58956         0.181802      0.234821      0.201988
Pb       7.81198      7.71709      8.19336        -0.017722      0.066664      0.065235
Pb       7.71003      7.75760     12.41727         0.051788     -0.119118      0.273203
Pb       7.84772     11.72893      4.17163         0.189103     -0.074178      0.448679
Pb       7.68971     11.80961     16.54951        -0.667330     -0.314720      0.091707
Pb       7.82989     11.75016      8.28633         0.203013     -0.412188     -0.555345
Pb       7.76531     11.66958     12.38947         0.341143     -0.108510      0.279120
Pb      11.84684      3.78078      4.25079        -0.420055      0.436505      0.311739
Pb      11.70960      4.02052      0.17567         0.212119     -0.501971     -0.615451
Pb      11.60992     15.45040      4.09757         0.404965     -0.186108      0.370801
Pb      11.61285     15.55380     16.55011         0.404612      0.210804     -0.162855
Pb      11.73112      4.05718      8.44093        -0.200638     -0.032838     -0.528179
Pb      11.72267      0.15350      8.34312         0.057459     -0.551535     -0.063139
Pb      11.76343      3.84544     12.46553        -0.378564      0.400702      0.532741
Pb      11.53844      0.07409     12.40159         0.577411     -0.886750      0.683495
Pb      11.77309      7.85591      4.23175        -0.293242     -0.137410     -0.314779
Pb      11.62836      7.81078     16.60849         0.253167     -0.050126     -0.025392
Pb      11.69021      7.76726      8.36359        -0.706591      0.248427     -0.011160
Pb      11.52615      8.00277     12.55204         0.415316     -0.504414     -0.019581
Pb      11.88184     11.45063      4.16981        -0.814512      0.552131      0.291502
Pb      11.58364     11.66394     16.52569         0.921428     -0.098598      0.089181
Pb      11.80384     11.88877      8.52169        -0.349526     -0.310515     -0.434471
Pb      11.58921     11.76891     12.43031         0.344332      0.123783     -0.165189
Ti       1.97257      2.04270      2.19701        -0.246081     -0.925969     -0.230630
Ti       1.98682      2.05213     14.65666         0.554013     -1.116647     -0.167701
Ti       1.94920     13.67210      2.15167        -0.685907     -0.247237      0.003874
Ti       1.90683     13.66890     14.58292         0.142744     -0.213115      0.268990
Ti      13.66249      1.91512      2.33355         1.028029     -0.825720     -1.404804
Ti      13.73836      1.92280     14.61096        -1.334338     -0.161386      0.388271
Ti      13.61560     13.55269      2.15091         0.684970      1.389795     -0.503468
Ti      13.60560     13.59535     14.66062         0.086412      0.150769     -0.124746
Ti       1.89936      1.75990      6.35480         0.387814      0.638824     -0.795247
Ti       1.86248     13.53134      6.26835         0.458460      0.298188     -0.972070
Ti      13.64780      1.88477      6.41620        -0.279307      0.064047      0.012091
Ti      13.64991     13.56078      6.41606        -0.563762      0.618191     -0.760220
Ti       2.03087      1.83390     10.58235        -0.895591      1.020741      0.182531
Ti       1.92522     13.65602     10.52111         0.186423     -0.047617      0.943480
Ti      13.74259      2.01657     10.59351        -0.112460     -0.993034      0.264941
Ti      13.69005     13.77709     10.61738        -0.487118     -0.423130     -0.004682
Ti       1.88195      5.89730      2.22865         0.376450      0.168232      0.578441
Ti       2.04039      5.88377     14.51756        -1.099419     -0.520244      0.386247
Ti      13.57269      5.81823      2.29697         0.741602      0.322064      0.038481
Ti      13.69159      5.77085     14.69657        -0.137983     -0.095545      0.177645
Ti       1.96798      5.67913      6.35951        -0.521818      1.338325     -0.845544
Ti      13.66137      5.89727      6.35861         0.186941     -0.739826     -0.170532
Ti       1.83109      5.83715     10.58830         0.597220     -0.016356      0.324393
Ti      13.57531      5.87307     10.66853        -0.054991      0.714391     -0.278233
Ti       1.99136      9.76344      2.22828        -0.771634     -0.433785     -1.249010
Ti       1.95541      9.76131     14.72942        -0.270312      0.075008     -0.201926
Ti      13.64649      9.70005      2.17184         0.159545     -0.721405      0.096931
Ti      13.69362      9.61288     14.78797        -0.547682      1.174785     -1.236562
Ti       1.99191      9.60730      6.36201         0.115152     -0.178849      0.385256
Ti      13.71946      9.72400      6.49262        -0.525893      0.144476     -0.076071
Ti       1.89996      9.74109     10.45853         0.860481     -0.358601      0.132417
Ti      13.73716      9.85082     10.58561        -1.178882     -0.398014     -0.266408
Ti       5.90169      1.96728      2.14697         0.261319     -0.346805     -0.077874
Ti       5.87867      1.82335     14.67704        -0.023400      0.289291     -0.615759
Ti       5.92095     13.53649      2.30040        -0.554292      0.505710     -1.885973
Ti       5.82735     13.59047     14.60163        -0.194296     -0.165849      0.546446
Ti       5.86554      1.79916      6.23298        -0.207322      0.652514      2.119223
Ti       5.89822     13.50305      6.32273        -0.375718      0.112830     -0.515855
Ti       5.77847      1.97029     10.51698         0.661304     -0.064737     -0.386556
Ti       5.83783     13.58979     10.50126        -0.019665      0.907385      1.172830
Ti       5.79850      5.88402      2.16841         0.304634     -0.234138      0.202710
Ti       5.86383      5.73231     14.72485         0.098858      0.689179     -0.576691
Ti       5.79260      5.75064      6.28642         0.329851      0.518852      0.238842
Ti       5.71218      5.82228     10.57246         0.628691     -1.285534     -1.656169
Ti       6.02947      9.71163      2.28303        -1.320055      0.247742     -1.655513
Ti       5.87368      9.69114     14.59778        -0.919578      0.812079      0.418742
Ti       5.87972      9.61741      6.28930        -0.043861      0.214698      1.382540
Ti       5.87417      9.74250     10.41489        -0.686624     -0.774535     -0.187091
Ti       9.90955      1.92327      2.24934        -1.488091     -0.306840     -0.825521
Ti       9.84499      1.91082     14.73920         0.113903     -0.432106      0.410452
Ti       9.81703     13.52545      2.14053        -0.365717      0.786384      0.870413
Ti       9.70706     13.54919     14.68320         0.281364      1.414563     -1.263918
Ti       9.78875      1.96352      6.43480         0.074372     -0.167162      0.462346
Ti       9.81462     13.62313      6.35503        -0.047696     -0.127878      0.160947
Ti       9.77723      1.94159     10.55065        -0.688952      0.319620     -1.586752
Ti       9.64578     13.69959     10.48577         1.633388     -0.893123     -0.383900
Ti       9.76373      5.78658      2.27339        -0.706058      0.323140      0.241175
Ti       9.77977      5.80892     14.82174         0.181203      0.107056     -1.702747
Ti       9.73323      5.77606      6.33334        -0.422231      0.690886      0.467729
Ti       9.65246      5.81273     10.72203         0.741434      0.733720     -0.695768
Ti       9.78693      9.68998      2.07213         0.849954     -0.420809      0.752919
Ti       9.67836      9.70608     14.70927         0.115764     -0.481324     -0.086274
Ti       9.86380      9.76503      6.41921         0.015668     -0.213566      0.163530
Ti       9.70048      9.72332     10.51679         0.745433      0.199320     -0.340292
O       1.92737      1.96122      0.38900        -0.055559      0.444740      0.523957
O       2.04198      1.90921     12.85763        -0.176783     -0.234183      0.633218
O       1.89785     13.70743      0.36380         0.319173     -0.314314      0.082527
O       1.94428     13.58043     12.77669         0.101800      0.189427      0.613488
O      13.77980      1.88738      0.51174         0.199651      0.301873      0.833441
O      13.69284      2.09047     12.83375        -0.053353     -0.470876     -0.021991
O      13.69628     13.68724      0.34938        -0.207589     -0.106080      0.752382
O      13.60412     13.57633     12.89469         0.247393      0.062974     -0.580788
O       1.94673      1.82946      4.59798         0.275607      0.223508     -0.039131
O       1.74390     13.55854      4.46325         0.774491     -0.275170      0.914801
O      13.58318      1.92262      4.66399         0.160049     -0.088376     -0.844492
O      13.71428     13.56251      4.63531        -0.260721     -0.128941      0.024168
O       2.09984      1.90071      8.79068        -0.440037     -0.355069     -0.382101
O       2.07956     13.87267      8.79907        -0.273655     -0.537984     -1.124333
O      13.69330      1.83423      8.80118        -0.076913      0.489007     -0.015391
O      13.64937     13.68368      8.79933        -0.052183     -0.295761      0.221624
O       1.93519      5.96918      0.47312        -0.027923     -0.805955     -0.145024
O       2.10363      5.85677     12.70279        -0.391059     -0.019604      1.372692
O      13.63633      5.64775      0.53434         0.105685      0.070522     -0.933829
O      13.64320      5.85456     12.94080        -0.044927     -0.341919     -0.123251
O       1.93086      5.75155      4.55963         0.223520      0.094825      1.141059
O      13.57377      5.93329      4.56157         0.117555     -0.194891      0.713861
O       1.85045      5.62807      8.85652        -0.148495      0.075597     -1.267950
O      13.76472      5.75721      8.79465        -0.580526      0.413201      0.550900
O       1.87467      9.74238      0.41219         0.482362     -0.078370      0.814507
O       1.79061      9.72620     12.96169         0.326398      0.073190     -0.242339
O      13.57560      9.69318      0.44503         0.096942     -0.028253     -1.355297
O      13.75734      9.68181     12.98867         0.059005     -0.098647      0.112313
O       1.97917      9.73810      4.54855        -0.179305     -0.107633      0.535462
O      13.57483      9.71422      4.65165         0.159316     -0.128662     -0.257013
O       1.99413      9.85033      8.68985        -0.211387     -0.468968      0.032500
O      13.83771      9.81125      8.73818        -0.274404     -0.174910      1.102599
O       5.86472      1.85877      0.36645        -0.015775      0.243222      0.365559
O       5.84306      1.92767     12.87790         0.091567     -0.171112      0.629089
O       5.86457     13.50153      0.44422         0.104312     -0.136040      0.519829
O       5.80967     13.61491     12.84138         0.104950      0.087156     -0.498026
O       5.84267      1.89945      4.48091         0.245576     -0.021153     -0.954156
O       5.88521     13.50661      4.50946        -0.057246      0.386254     -0.405869
O       5.86759      1.93074      8.71507        -0.223612      0.113193      0.444761
O       5.96434     13.63132      8.77265         0.008509     -0.229088     -1.288078
O       5.75584      6.03773      0.30535         0.159454     -1.016226      0.456096
O       5.91952      5.77248     12.95540        -0.474001      0.368609      0.102252
O       5.76539      5.85662      4.50304         0.177293     -0.092341      0.119716
O       5.91109      5.63482      8.76300        -0.155966      0.539898      0.601479
O       5.98561      9.87001      0.44680        -0.045708     -0.366583      0.884473
O       5.77007      9.62590     12.83036         0.140804      0.214584     -0.110720
O       5.86358      9.60257      4.51698         0.069257     -0.055087     -1.200226
O       5.81256      9.79687      8.64475         0.262957     -0.131813      0.750883
O       9.87219      1.77416      0.42359        -0.170879      0.238846      1.287363
O       9.82970      1.87466     12.96864        -0.334326      0.411087     -0.784222
O       9.78096     13.78262      0.37872        -0.057352     -0.869120      0.224770
O       9.81342     13.59588     12.87170        -0.290587     -0.254203      0.477527
O       9.75778      2.05482      4.67049         0.008991     -0.406821     -0.920479
O       9.71924     13.58385      4.56469         0.274342      0.089729     -0.019665
O       9.74016      2.03628      8.70069         0.349965     -0.499628      1.310082
O       9.60404     13.66182      8.65795         0.184740     -0.114631      0.773860
O       9.81128      5.56559      0.49121        -0.063769      0.932204     -0.330103
O       9.78559      5.73566     13.01286        -0.391846     -0.092588      0.646649
O       9.69720      5.87731      4.57644         0.200988     -0.179235     -0.145843
O       9.86834      5.92393      8.92067        -0.349612     -0.360530      0.251111
O       9.94382      9.65673      0.29388        -0.774365      0.268340      0.634564
O       9.66521      9.83590     12.93524         0.170201     -0.157361     -0.308154
O      10.02186      9.70581      4.60004        -0.556883      0.071899      0.525222
O       9.79251      9.68042      8.75789        -0.208653      0.082193     -0.213560
O       3.89228      1.97336      2.52595         0.243880     -0.538877     -0.183865
O       3.97248      1.96241     15.02489        -0.474864      0.033472      0.027610
O       3.89621     13.56957      2.47951        -0.404274      0.066510      0.186354
O       3.85088     13.72380     14.96364         0.008370     -0.453844      0.006985
O       0.06196      1.99243      2.68680        -0.289803     -0.231750     -0.858540
O       0.03998      2.01904     14.89483         0.012643     -0.225940      0.276199
O      15.55933     13.62369      2.48131        -0.094565     -0.284900     -0.195319
O       0.02640     13.55932     14.95536         0.133649      0.430138     -0.176235
O       3.92440      1.78280      6.66128        -0.290697      0.180924     -0.469521
O       3.95159     13.62052      6.62501        -0.496982     -0.066398     -0.033389
O      15.58963      1.83233      6.77283         0.645458      0.501666     -0.341869
O      15.55266     13.60213      6.68165         1.192157     -0.292358      0.343523
O       3.88457      1.92220     10.87959         0.416641     -0.154143     -0.111298
O       3.99517     13.54389     10.81275        -0.554899      0.411055     -0.096983
O      15.58165      1.89629     10.94445         0.061806     -0.035494     -0.427822
O       0.04556     13.66159     10.75915        -0.744489      0.114315      0.219582
O       3.88867      5.93350      2.46233        -0.254045     -0.319498      0.047707
O       3.88102      5.76960     14.99536         0.523656     -0.048580     -0.092547
O      15.57573      5.70673      2.60038         0.081350      0.315688     -0.203674
O       0.03694      5.87461     14.84455        -0.272346     -0.836795      0.326105
O       3.88752      5.96350      6.71480        -0.198680     -1.015427     -0.081341
O      15.59237      5.82613      6.68390        -0.017573     -0.192800     -0.054989
O       3.82042      5.79131     10.71135         0.206259      0.186279      0.464262
O      15.53484      5.87740     11.01982         0.336331     -0.784422     -0.324173
O       3.85815      9.64548      2.47236         0.378264      0.477130     -0.034975
O       3.80954      9.78108     14.98824         1.027058     -0.245488      0.116223
O      15.52831      9.68818      2.55128         0.223236      0.175579      0.045316
O       0.00839      9.68193     15.19280        -0.386779      0.121875     -0.595420
O       3.99360      9.70890      6.66182        -1.223402      0.033494     -0.084557
O       0.03865      9.68438      6.72196         0.189673      0.285211     -0.359301
O       3.81100      9.71510     10.84813         0.643558     -0.085193     -0.032148
O       0.01164      9.78478     10.91951        -0.203409      0.097896     -0.327803
O       7.81482      1.99158      2.46763        -0.126513      0.023576      0.249099
O       7.79435      1.81054     14.91529         0.187051      0.417392      0.475183
O       7.77579     13.43511      2.48466         1.062353      0.334203      0.122428
O       7.81603     13.60101     14.78454        -0.322283     -0.377620      0.691197
O       7.82877      1.92097      6.73295        -0.777610     -0.050578     -0.649919
O       7.83434     13.61179      6.49994         0.112413      0.065382      0.714548
O       7.82669      2.02283     10.75208        -0.245269     -0.108538      0.404982
O       7.83181     13.63118     10.93310        -1.064384     -0.201802     -0.186473
O       7.73892      5.82136      2.45622         0.822413     -0.366025      0.187442
O       7.82867      5.88579     15.10421        -0.560552     -0.453763      0.047916
O       7.78760      5.96039      6.59349         0.474568     -0.843083      0.129143
O       7.77404      5.77466     10.95853         0.221631      0.112975     -0.202651
O       7.90045      9.80534      2.60456         0.161033     -0.399671     -0.354815
O       7.73347      9.75878     14.90580         0.456993      0.112560      0.278596
O       7.80450      9.69965      6.56746         0.854983      0.102350      0.206931
O       7.75779      9.63335     10.77961        -0.462722      0.371659      0.027014
O      11.77334      1.79270      2.53487        -0.864433      0.316914      0.262706
O      11.79224      1.82592     14.95934        -0.447854     -0.100646      0.027858
O      11.74025     13.59964      2.58330        -0.953092      0.487545     -0.467584
O      11.67950     13.62478     14.96688         0.272491     -0.084922      0.203147
O      11.75789      1.87106      6.73055        -0.595560      0.577823      0.097383
O      11.75841     13.62311      6.70746        -0.661667      0.025628      0.140589
O      11.62909      1.89562     10.92097         0.655167      0.514276     -0.491848
O      11.63292     13.58702     10.85856         0.185700      0.041538     -0.485083
O      11.68036      5.84135      2.55849        -0.087168     -0.309218      0.070856
O      11.69753      5.85203     15.03351         0.202097     -0.220062      0.438305
O      11.67626      5.85435      6.75088         0.005160     -0.249124     -0.120485
O      11.70154      6.00035     11.10799         0.236382     -0.655520     -0.940794
O      11.73021      9.61925      2.48231        -0.581976      0.298394      0.236633
O      11.71307      9.56063     14.92582         0.046409      0.409726      0.242273
O      11.81362      9.67298      6.82154        -0.952814      0.261576     -0.115147
O      11.71549      9.66908     10.87689         0.107174      0.273160     -0.146506
O       2.02263      3.90018      2.65265        -0.209659     -0.414480     -0.910242
O       1.91535      3.88518     14.79468         0.262900      0.979650      0.541459
O       1.93147     15.53583      2.44295         0.254075      0.795892      0.251722
O       1.96333      0.06363     14.87306        -0.307000     -0.948815      0.136434
O      13.61345      3.84701      2.70849        -0.176654     -0.442473     -0.351865
O      13.58100      3.79764     15.01491         0.543558      1.204287      0.206230
O      13.66042     15.54086      2.59106         0.025701      0.334125     -0.026948
O      13.85756     15.57359     14.83893        -0.256230      0.185438      0.275168
O       2.02502      3.80466      6.66678        -0.335317     -0.215918     -0.179714
O       1.89287     15.44193      6.46395         0.259857      1.006607      0.930013
O      13.60386      3.89567      6.68953         0.195651     -0.062136      0.170953
O      13.66741     15.54985      6.71671         0.019006      0.142324      0.114796
O       1.87839      3.77221     11.08792         0.090610      0.551229     -1.139783
O       1.98106     15.59712     11.02070         0.035624     -0.497153     -0.424065
O      13.54410      3.93131     10.78133         0.090336     -0.592898      0.144286
O      13.49872      0.00871     10.89325         0.710998     -0.027556      0.034182
O       1.85945      7.77782      2.63807        -0.166616      0.292140     -0.208974
O       1.94643      7.65106     14.96720         0.191068      1.579710     -0.093831
O      13.61719      7.72130      2.46921         0.357342      0.562720      0.349666
O      13.75173      7.71071     15.04916        -0.555866      0.029110      0.083149
O       2.00654      7.74341      6.74343        -0.273794      0.432778     -0.322165
O      13.60233      7.79264      6.76855         0.512990     -0.767512      0.057228
O       1.85832      7.77754     10.77755         0.066756      0.190745     -0.242774
O      13.80608      7.78396     10.82632        -0.346212      0.575029     -0.303319
O       1.82562     11.68362      2.49028         0.622544     -0.362545     -0.105638
O       1.91882     11.68796     14.89806         0.037184      0.404918      0.392310
O      13.53365     11.67826      2.46501         0.647076     -0.643725     -0.000478
O      13.67704     11.69510     15.04750        -0.218748     -0.762086     -0.018675
O       2.01512     11.69250      6.73499        -0.331207     -0.065805     -0.270913
O      13.61429     11.61402      6.74116         0.396138      0.917426      0.117816
O       1.94870     11.68388     10.70755        -0.020649      0.509809      0.399275
O      13.60335     11.70031     10.94150         0.342648     -0.148754     -0.497620
O       5.78667      3.94450      2.37362        -0.137638     -1.181379      0.129475
O       5.94624      3.89155     15.04505        -0.430236     -0.377548      0.033925
O       5.90737     15.55580      2.42743        -0.163885      0.130532      0.571055
O       5.86448     15.47668     14.99779        -0.128498      1.157939     -0.020421
O       5.74333      3.83504      6.49870         0.414784     -0.087047      0.145677
O       5.91467     15.52522      6.54072         0.089349      0.409376      0.104448
O       5.71348      3.90417     10.90883         0.593634     -1.020565      0.036645
O       5.93407      0.05436     10.92678        -0.575099     -0.895695     -0.644230
O       5.91070      7.73843      2.37555         0.200508      1.672389      0.651931
O       5.79403      7.85624     15.01458         0.087388     -0.706165     -0.239293
O       5.90938      7.71472      6.70010        -0.377886      0.459228     -0.101073
O       5.74530      7.69020     10.82953         0.375460      1.246453     -0.112671
O       5.82936     11.59850      2.52139        -0.135684      0.133454      0.568099
O       5.80563     11.70660     14.85429        -0.004771     -0.455065      0.458719
O       5.94845     11.63774      6.51427        -0.195666      0.303177      0.537346
O       5.86358     11.59261     10.85099         0.174982      0.831125     -0.291507
O       9.88436      3.84665      2.61149        -0.236874     -0.750821     -0.114190
O       9.74263      3.77636     15.25734         0.115515      0.465426     -1.125949
O       9.59993     15.53444      2.59841         0.759792      0.349151      0.006652
O       9.75212     15.53732     15.03666         0.049618      0.118455     -0.160743
O       9.64112      3.87078      6.79908         0.714305      1.115329     -0.504767
O       9.84157      0.00882      6.76058        -0.415993     -0.270273     -0.491797
O       9.75263      3.88706     10.89557         0.434577     -0.150088      0.013369
O       9.72248     15.57388     10.80813        -0.178302      0.646521     -0.055063
O       9.73997      7.73474      2.34636        -0.149443      0.713998      0.380294
O       9.63698      7.76981     14.95358         0.452336     -0.273808      0.414046
O       9.78112      7.86297      6.76727         0.146306     -1.057511     -0.269582
O       9.66310      7.84316     11.03443         0.143186     -0.699511     -0.133627
O       9.86224     11.65966      2.34893        -0.137465     -0.379621     -0.029249
O       9.79429     11.61442     15.03782        -0.205937      0.732076     -0.044339
O       9.83879     11.69913      6.71121        -0.247730     -0.104924      0.124379
O       9.69534     11.67653     10.69861        -0.201854     -0.048942      0.475063
