  # total energy = -7881.62090716 
CRSYTAL
PRIMVEC
    15.6080000000000005    0.0000000000000000    0.0000000000000000
     0.0000000000000000   15.6080000000000005    0.0000000000000000
     0.0000000000000000    0.0000000000000000   16.6239999999999988
PRESSURE
-0.3824 -0.303532 0.667235 -0.196421 0.130867 0.003657
PRIMCOORD
320 1
Pb       3.84171      3.79226      4.06915         0.400463      0.454792      0.717069
Pb       3.78230      3.78011      0.04745         0.587880      0.576275     -0.162832
Pb       3.90584     15.51409      4.22149         0.130981      0.056421      0.070146
Pb       3.90214     15.53445      0.06723         0.106584     -0.023724     -0.103165
Pb      15.48452      3.82696      4.14386         0.319760      0.330682     -0.506921
Pb      15.55050      3.90479     16.55090         0.170127      0.194853      0.602623
Pb       0.11014      0.01224      4.18358        -0.229322     -0.587815      0.038697
Pb       0.05807     15.55334     16.62051        -0.245298      0.018068      0.660512
Pb       3.97357      3.99015      8.35061         0.077610     -0.372293     -0.665951
Pb       3.91972      0.15041      8.47429         0.132201     -0.108137     -0.833264
Pb       0.03751      3.91238      8.22963        -0.136258      0.272679     -0.218968
Pb       0.09455      0.05820      8.28827        -0.433159      0.056358      0.002330
Pb       3.85397      3.99498     12.42311        -0.129001      0.034300     -0.106312
Pb       3.84251     15.54060     12.34141         0.618887      0.413696      0.105940
Pb      15.53839      3.75763     12.23725        -0.093607      0.089997      1.517631
Pb      15.50208     15.59477     12.39270         0.466122      0.156774     -0.006163
Pb       3.82310      7.75319      4.19299         0.146702      0.157076     -0.512997
Pb       3.77805      7.79553     16.58410         0.662665     -0.201406      0.122396
Pb      15.57288      7.82135      4.04678         0.385927      0.136290     -0.014893
Pb       0.00959      7.79965      0.00418        -0.010303     -0.120485     -0.123423
Pb       4.03322      7.82517      8.23842        -0.647237     -0.125522      1.202836
Pb       0.04015      7.84324      8.20195        -0.081516     -0.394881      0.901771
Pb       3.77878      7.85890     12.53790         0.305906     -0.259252     -0.240259
Pb      15.58082      7.75983     12.41555        -0.268038     -0.254116      0.105850
Pb       3.96250     11.68160      4.21020        -0.133390     -0.051762     -0.007116
Pb       3.88798     11.66769     16.51491        -0.032075     -0.152621      0.488648
Pb       0.04444     11.80785      4.17315         0.027472     -0.408992     -0.265312
Pb       0.06131     11.76323      0.06903        -0.069132     -0.123781      0.134385
Pb       3.88679     11.60302      8.25755         0.015647      0.292123      0.280471
Pb      15.45312     11.72145      8.30523         0.307797     -0.192858      0.042912
Pb       3.76928     11.82410     12.54235         0.573619     -0.541170      0.114561
Pb      15.49305     11.56169     12.37512        -0.293667      0.714552      0.219790
Pb       7.73922      3.94306      4.09244         0.365199     -0.147574      0.277350
Pb       7.62385      3.67661      0.01405         0.064409      0.661611      0.128356
Pb       7.72210     15.60705      4.07198         0.137828      0.155289      0.616525
Pb       7.77483     15.42618      0.01922         0.289383      0.443900     -0.770706
Pb       7.77054      3.95433      8.25879         0.228580     -0.304320      0.324757
Pb       7.79573     15.53117      8.44613         0.035036      0.425211     -0.300253
Pb       7.75914      4.06862     12.47285         0.418012     -0.145554      0.072605
Pb       7.87948      0.12278     12.50015        -0.623185     -0.297647     -0.219560
Pb       7.61147      7.79316      3.97090         0.712235     -0.260707      0.451268
Pb       7.90390      7.82065     16.54226        -0.913349     -0.849594      0.131751
Pb       7.82190      7.81316      8.43545        -0.033361      0.015490     -0.574572
Pb       7.82148      7.81073     12.55702         0.081992     -0.337072     -0.101317
Pb       7.72391     11.76593      4.06066         0.652341     -0.675966      0.738180
Pb       7.81369     11.52235     16.61363         0.165206      0.529848     -0.545603
Pb       7.61880     11.64462      8.36157         0.214325     -0.355492     -0.545916
Pb       7.72113     11.65621     12.52126         0.563989      0.000233      0.459409
Pb      11.65312      4.02735      4.18382        -0.139270     -0.429459     -0.381508
Pb      11.73937      3.79462     16.45114        -0.498416      0.122141      1.123121
Pb      11.83704      0.22633      4.21424        -0.288117     -0.659091      0.041097
Pb      11.70635     15.55428      0.02804        -0.041831      0.171282     -0.122955
Pb      11.66650      3.79507      8.21123        -0.016803      0.489552     -0.042377
Pb      11.55805     15.43448      8.21488         0.310682      0.417597     -0.057481
Pb      11.61657      3.86380     12.41848        -0.250041      0.194752      0.025592
Pb      11.86152     15.53191     12.43706        -0.925221      0.361957      0.675273
Pb      11.73513      7.75026      4.02516        -0.400237      0.269130      0.193655
Pb      11.64596      7.72788     16.57320         0.098342      0.406410     -0.034961
Pb      11.70490      7.84980      8.08504        -0.345596     -1.045091      1.021085
Pb      11.78475      7.63956     12.47139        -0.606412      0.049602     -0.432100
Pb      11.55181     11.92794      4.25850         0.433078     -0.701959     -0.704056
Pb      11.85641     11.78709     16.60688        -0.129768     -0.260911     -0.205846
Pb      11.67347     11.60115      8.17486        -0.215362      0.302755      0.376363
Pb      11.56993     11.59951     12.37038         0.238180     -0.044226      0.589609
Ti       1.98351      1.85905      2.37121        -0.036707     -0.072701     -0.125691
Ti       1.92885      1.84425     14.76994         0.133129      0.238347     -1.562108
Ti       2.09937     13.53978      2.31368        -0.739216      0.591985     -1.190011
Ti       1.95231     13.56241     14.63865         0.432709      0.612435      1.143155
Ti      13.67836      1.91911      2.19529        -0.036071      0.218697     -0.642880
Ti      13.68989      1.97206     14.76465        -0.896632      0.096959      0.019170
Ti      13.68379     13.59035      2.31237        -0.178484      0.992461     -0.942057
Ti      13.73224     13.73500     14.67197        -0.523921     -0.719984      0.563707
Ti       1.91959      2.08563      6.37790         1.192806     -1.135535      0.775202
Ti       1.92897     13.63309      6.49414         1.776558      1.077302     -0.574059
Ti      13.65538      1.97742      6.29658        -0.209607     -0.487823      1.300928
Ti      13.71798     13.61958      6.31287        -0.256550      1.191702     -0.176571
Ti       1.96654      1.93674     10.52946         0.111440     -0.075134     -0.816151
Ti       1.92427     13.62017     10.50054        -0.668882      0.415545      0.057481
Ti      13.52754      1.90193     10.38450         0.640080     -0.117281     -0.266980
Ti      13.54846     13.65648     10.55992         0.914157     -0.863316     -1.447029
Ti       1.94237      5.78695      2.25143         0.006405      0.243283      0.258657
Ti       1.92094      5.76294     14.69832         0.047766      0.430967     -0.295706
Ti      13.71835      5.91805      2.06518        -0.467055     -1.107649      0.584235
Ti      13.61934      5.98419     14.66603         0.640719     -1.242208      0.904820
Ti       2.01598      6.00365      6.26484        -0.129818     -1.215230      0.167315
Ti      13.77215      5.88031      6.23246        -0.964175     -0.744467      1.772872
Ti       1.85027      5.93167     10.49597         1.128574     -0.238506     -0.876346
Ti      13.71386      5.69720     10.38273        -1.786103      1.190416     -0.034564
Ti       2.01058      9.74810      2.27111        -0.175469      0.175864      0.060993
Ti       1.89493      9.76028     14.67425         0.658373     -0.429903      0.264072
Ti      13.60521      9.79552      2.25210         0.309193      0.491025     -0.700704
Ti      13.70762      9.80169     14.65660        -1.368799      0.251694      0.270691
Ti       1.85336      9.77534      6.32721         0.758818      0.038053      0.226747
Ti      13.60960      9.69834      6.34949         0.203774      0.417467     -0.492015
Ti       1.83344      9.79068     10.56866         1.266275     -0.454687     -0.552252
Ti      13.55988      9.59966     10.53143        -0.170981      0.177226     -0.022935
Ti       5.89615      1.85992      2.28439        -0.719925      0.205637      0.694741
Ti       5.75837      1.92877     14.60081         1.020888      0.195760      0.514216
Ti       5.91018     13.46213      2.12711        -1.125845      1.885757      0.200587
Ti       5.86963     13.65076     14.62448         0.252691     -0.472257      0.249669
Ti       5.89121      1.95895      6.41010        -0.776328     -0.721263      1.612757
Ti       5.85220     13.69776      6.50284        -0.746105     -0.144997      1.795288
Ti       5.92416      2.06120     10.59210        -0.843474     -1.021395     -0.549874
Ti       5.87144     13.55368     10.61066        -0.290614      0.856136      0.630168
Ti       5.76424      5.77282      2.24269         0.542961     -0.260926     -1.402733
Ti       5.77429      5.81724     14.62733         0.482479      0.192074      1.271227
Ti       5.90455      5.86543      6.37883        -0.781067     -0.554968      0.456631
Ti       5.82078      5.89080     10.51265         0.310076     -0.454632     -0.263698
Ti       5.85038      9.71970      2.12815        -0.925510     -0.917714     -0.241468
Ti       5.82225      9.75192     14.70071        -0.132120     -0.799108      1.798441
Ti       5.78535      9.67803      6.29777         0.941164      0.952617      0.835220
Ti       5.77346      9.67770     10.67550        -0.021392      0.283200     -0.527855
Ti       9.79710      1.89595      2.21611        -0.006764      0.883153     -0.325576
Ti       9.64742      1.92528     14.68294         0.324620      0.170648      0.727399
Ti       9.70744     13.72212      2.21194         1.255939     -0.454690     -0.486448
Ti       9.80742     13.61358     14.64825        -0.727462     -0.153562      0.523176
Ti       9.70442      1.86963      6.38200         0.182822      0.315072     -0.123703
Ti       9.70233     13.52977      6.32790        -0.669604      0.751719      0.708298
Ti       9.76328      1.88013     10.55445        -0.975833      0.816091     -1.435295
Ti       9.73274     13.64799     10.60119        -0.306650     -0.368375     -0.709145
Ti       9.80139      5.77660      2.16682        -0.386637      0.030144      0.220679
Ti       9.69959      5.76457     14.76043        -0.699159     -0.165581     -0.714083
Ti       9.76142      5.82135      6.33797         0.451736     -0.516974     -0.012516
Ti       9.77882      5.84946     10.53335        -0.137392     -0.575781     -0.598047
Ti       9.75537      9.75254      2.14634         0.155279      0.357886      0.954456
Ti       9.76626      9.71258     14.71619         0.729332      0.411666      0.860516
Ti       9.69562      9.71228      6.23283        -0.823354     -0.181083      0.540211
Ti       9.71326      9.67955     10.57280        -0.330202     -0.048340     -0.266779
O       1.96011      1.87877      0.63378         0.342850      0.079243     -2.001262
O       1.95156      1.79764     12.96469        -0.123573      0.418471      0.844187
O       2.04531     13.32846      0.49247         0.339527      0.920880     -0.027862
O       1.88135     13.63593     12.91754        -0.055263      0.198336     -0.926180
O      13.57498      1.91961      0.38491         0.317988     -0.385140      0.768044
O      13.65520      2.01933     13.00606        -0.284446     -0.406629     -0.789735
O      13.55674     13.65883      0.43347         0.459657     -0.204257      0.994112
O      13.69946     13.77499     12.89932        -0.115657     -0.198057     -0.292362
O       1.87533      1.79885      4.61655         0.375305      0.289861     -0.337992
O       1.98747     13.74241      4.68116        -0.049379     -0.533069     -0.151522
O      13.77256      1.99689      4.51601        -0.316460      0.027909     -0.480259
O      13.75276     13.58951      4.51197         0.001673     -0.100960      0.745841
O       1.87910      1.90063      8.72400        -0.099933      0.420755      0.193287
O       2.00668     13.50625      8.74160        -0.498928      0.335737      0.006712
O      13.62779      1.88017      8.63393         0.122897     -0.105713      0.479678
O      13.53309     13.72328      8.72948         0.155663     -0.594789      0.451320
O       1.87410      5.78770      0.48728         0.156781      0.122994     -0.476284
O       2.03028      5.75658     12.89917        -0.270224      0.337402     -0.214905
O      13.68645      5.99726      0.29110         0.186381     -0.138456      0.772222
O      13.51838      5.79629     12.91129         0.247151      0.380949     -0.318020
O       2.00597      5.89719      4.48141         0.047314      0.380795      0.385718
O      13.70432      5.88258      4.47711        -0.212951     -0.200880     -0.099839
O       1.80244      6.02940      8.69103         0.047124     -0.911374      1.134311
O      13.77111      5.82442      8.64950         0.193029     -0.100939      0.036377
O       1.99634      9.93552      0.49935        -0.415001     -0.515701     -0.729219
O       2.06729      9.77967     12.89908        -0.713074     -0.547323     -0.059631
O      13.65046      9.86768      0.43038         0.215850     -0.136299      0.992386
O      13.69098      9.67098     12.84053        -0.089186      0.043789      0.378587
O       1.99486      9.70406      4.55257        -0.033215      0.261612      0.645635
O      13.63711      9.68574      4.61196         0.260564     -0.121533     -0.471760
O       1.93786      9.69674      8.82897        -0.296558      0.321679     -0.223595
O      13.60667      9.68545      8.76777        -0.142308      0.398669     -0.585528
O       5.77310      1.91722      0.55226        -0.047915     -0.178172     -1.266481
O       5.82485      1.96350     12.83497        -0.126144      0.068377      0.157787
O       5.77391     13.61826      0.37320         0.135626      0.079973      0.132103
O       5.86845     13.46991     12.85608         0.116272      0.723203      0.120506
O       5.89507      1.77222      4.69962        -0.023095      0.190692     -1.617644
O       6.02324     13.52358      4.81639        -0.258143      0.287121     -2.303249
O       5.93846      2.02218      8.80039        -0.360964      0.115426      0.107100
O       5.61901     13.44852      8.86100         0.924535      0.085837      0.239343
O       5.94147      5.61476      0.46267        -0.572927      0.641917      1.038634
O       5.82978      5.88892     12.83843        -0.686938     -0.356253      0.053872
O       5.76162      5.86913      4.62955         0.237524      0.040373     -0.791505
O       5.93693      5.76648      8.67252        -0.318969      0.036008      0.456004
O       5.90680      9.64428      0.33879        -0.117082      0.162357      1.141240
O       5.83848      9.66160     12.97094        -0.123990     -0.589766     -1.304622
O       5.74833      9.84628      4.54368         0.079541     -0.530857      0.261407
O       5.76611      9.69927      8.84609         0.802482      0.143383      0.647068
O       9.76320      1.94764      0.44044        -0.156794     -0.375856      0.489127
O       9.72318      2.10377     12.91765        -0.263895     -0.607941     -0.695256
O       9.82527     13.90855      0.42341        -0.417257     -0.612950      0.503755
O       9.79123     13.53724     12.87622        -0.185732      0.420971      0.293158
O       9.92865      1.90739      4.59858        -0.695056      0.281391      0.277283
O       9.55791     13.43695      4.53928         0.382351      0.280182      0.505364
O       9.80872      1.73735      8.70948        -0.251716      0.260908      0.629658
O       9.86081     13.75686      8.77918        -0.124540     -0.542857      0.561764
O       9.79362      5.93592      0.38840        -0.231842     -0.084576      0.265247
O       9.80376      5.69868     12.93443         0.137189      0.113252     -0.014928
O       9.86070      5.65596      4.55676         0.021321      0.243552      0.005391
O       9.68272      5.81525      8.74259        -0.329992      0.519549      0.099701
O       9.61476      9.61739      0.36576         0.644741      0.186051      0.946030
O       9.70873      9.71643     12.99674         0.428000      0.033631     -1.053570
O       9.88385     10.03864      4.53107        -0.570155     -0.675677     -0.380436
O       9.61172      9.54149      8.77122        -0.008104      0.235609      0.371193
O       3.94225      1.90654      2.67705        -0.449175      0.227840     -0.071008
O       3.89578      1.96840     15.01714        -1.172285     -0.298012      0.244990
O       4.04748     13.61985      2.69225         0.149478     -0.440684     -0.193922
O       3.96481     13.44506     14.83878        -0.768212      0.654090      0.298053
O       0.05536      1.73933      2.56783        -0.577296      0.663073     -0.134833
O      15.57641      1.87899     15.09403         1.064872     -0.108344     -0.021112
O       0.15562     13.53645      2.51548        -1.279120      0.302636      0.095006
O       0.05890     13.71608     15.07505        -0.544703     -0.569871     -0.239236
O       3.94928      1.85761      6.83568        -1.203358      0.165298     -0.267699
O       3.89693     13.67693      6.73372        -0.247173     -0.216897     -0.119289
O       0.02792      2.10150      6.66483        -0.151015     -0.345784      0.069547
O       0.04995     13.52393      6.68811        -1.822529      0.148440      0.290359
O       3.90375      1.92563     10.69434        -0.626677      0.378866      0.529015
O       3.81405     13.55696     10.97979         0.435506      0.131667     -0.342240
O      15.53070      1.91256     10.83573        -0.386915     -0.465205     -0.366776
O      15.57359     13.81748     10.84491        -0.038094     -0.674398     -0.354237
O       3.89089      5.70069      2.50940        -0.131858      0.052530     -0.042130
O       3.82961      5.61818     14.97509         0.207850      0.620359      0.183478
O       0.00828      5.85907      2.52447        -0.488946      0.185144     -0.174414
O      15.59436      5.90647     15.00075        -0.396093      0.029933     -0.132521
O       3.87160      6.04446      6.72638         0.119403     -0.732339     -0.275752
O       0.05255      5.80444      6.54023        -0.695403      0.120526     -0.026589
O       3.87825      5.96736     10.67158        -0.829606     -0.859633      0.534157
O      15.53324      5.75386     10.95016         0.311562      0.388735     -0.497790
O       3.94980      9.81666      2.54212        -0.001427      0.016502     -0.076095
O       3.90474      9.63698     15.12459        -0.743643      0.435289     -0.712572
O       0.10113      9.77865      2.65359        -0.874915     -0.026741     -0.452168
O      15.59196      9.88745     14.92989         0.766059     -0.546626      0.099202
O       3.85854      9.56224      6.75229        -0.046449      0.932139     -0.873438
O      15.55699      9.69085      6.79983         0.043886      0.767052     -0.753455
O       3.89511      9.66087     10.90311        -0.418157      0.035670      0.104310
O      15.55024      9.59426     10.80016        -0.008062      0.802827      0.469914
O       7.78042      1.99664      2.57742         0.982363     -0.238356      0.008401
O       7.73970      1.92302     15.07291        -0.741063     -0.218242     -0.332234
O       7.75899     13.73171      2.53460        -0.019075     -0.211875     -0.476899
O       7.77454     13.49435     15.06300         0.194127      0.727970     -0.114363
O       7.78082      1.96589      6.73523         1.093856     -0.139070     -0.246802
O       7.79774     13.61978      6.85230         0.431156     -0.551028      0.293025
O       7.73483      1.85722     10.80009         1.460126      0.157083      0.558187
O       7.84246     13.60438     10.77801        -1.104037     -0.321242     -0.012615
O       7.87354      5.78422      2.62870        -0.278480      0.609181     -0.339340
O       7.71102      5.87334     14.85345         0.858928     -0.013584      0.215632
O       7.73720      5.72456      6.60715         1.104558      0.072145     -0.075543
O       7.73966      5.82472     10.89324         1.135455      0.197830     -0.127981
O       7.75501      9.71423      2.54687         0.346291     -0.380514     -0.352571
O       7.79816      9.66573     15.10563        -0.061998     -0.099003     -0.782225
O       7.76820      9.75143      6.52017        -0.241603     -0.248209      0.357372
O       7.87012      9.76271     11.12323        -1.150965     -0.831577     -1.080237
O      11.73785      1.86517      2.55734         0.507733      0.008714     -0.215712
O      11.57751      1.97513     15.01890         1.020698     -0.182862     -0.313965
O      11.69536     13.68841      2.58203        -0.369511     -0.369740      0.014098
O      11.68237     13.69312     14.99467         0.417950      0.094730     -0.220954
O      11.77436      1.94185      6.58767        -0.373949     -0.189849      0.006566
O      11.62926     13.62010      6.55358         0.616868     -0.542386     -0.037731
O      11.59343      1.78196     10.75932         1.782511      0.376264      0.475126
O      11.61393     13.58595     10.93531         1.268551      0.301280     -0.023524
O      11.75946      5.88744      2.45194         0.150165      0.126604      0.137125
O      11.71857      5.75722     15.00499         0.075507      0.580909     -0.106450
O      11.69982      5.80541      6.70110         0.302660      0.062439     -0.419939
O      11.69149      5.74882     10.67938         0.185027      0.294758      0.669793
O      11.74751      9.92212      2.63357        -0.781983     -0.802451     -0.915642
O      11.70832      9.71145     15.05492         0.445134      0.286814     -0.313169
O      11.65289      9.69328      6.66564         0.504744      0.250336     -0.006321
O      11.62456      9.65776     10.78839         1.089058      0.466304      0.408134
O       1.90620      3.87193      2.66509        -0.030985     -0.634233     -0.201318
O       1.84131      3.91846     15.11549         0.072603     -1.788133     -0.362160
O       2.15186     15.47454      2.47418        -0.283395      0.798232      0.421454
O       1.99340     15.49633     15.14655         0.284399      0.886411     -0.096742
O      13.68914      3.86935      2.34369         0.392574      0.100254      0.458766
O      13.72341      3.90426     15.13860        -0.277503      0.046242     -0.814281
O      13.69887     15.51851      2.58571         0.062938      0.509865     -0.120837
O      13.68646     15.60218     15.00646        -0.200766      0.050106      0.010879
O       2.04903      3.96409      6.54028        -0.032879     -0.206096      0.434612
O       1.80332     15.59061      6.77693         0.353522     -0.029189     -0.091191
O      13.64812      3.89463      6.74503         0.325624      0.495640     -0.783967
O      13.71250     15.60627      6.45916         0.270157     -0.523381      0.319523
O       1.80480      3.84531     10.86646         0.893729      0.526193     -0.426764
O       2.01253      0.01638     10.76277        -0.317696     -0.618671      0.199779
O      13.50675      3.81102     10.66793         0.566588     -0.249318      0.319592
O      13.55334     15.55204     10.84043         0.012377      0.949505      0.134646
O       2.06741      7.79013      2.47428        -0.228608     -0.001749      0.131527
O       1.94047      7.77383     15.01132        -0.118013      0.510331     -0.070992
O      13.71268      7.81813      2.45369        -0.149345      0.260161      0.087201
O      13.72294      7.90041     15.09098        -0.231102     -0.620042     -0.773459
O       1.85459      7.85055      6.65099        -0.072472     -0.004402     -0.297413
O      13.62495      7.78588      6.65635         0.251468     -0.448759     -0.311646
O       1.81211      7.78257     10.81145         0.082653     -0.082095      0.837506
O      13.58359      7.72920     10.73841         0.239409     -0.388063      0.580489
O       2.04854     11.71334      2.60351         0.209625     -0.964373      0.930324
O       2.02579     11.66430     14.93924        -0.430510     -0.182086     -0.080324
O      13.67376     11.68427      2.58944         0.434136      0.450218     -0.038417
O      13.67853     11.75372     15.00624        -0.156337      0.021390     -0.350204
O       1.89621     11.66485      6.73610         0.223885     -0.719038     -0.303720
O      13.64462     11.69447      6.57448        -0.182787     -0.266547      0.697109
O       1.80883     11.72347     10.93690         0.037960     -0.691885     -0.404717
O      13.67217     11.73673     10.87459        -0.086863     -0.473642     -0.254899
O       5.90330      3.87808      2.59880        -0.356818     -0.248933      0.408438
O       5.81170      3.82826     15.05400         0.061413     -0.195629     -0.488885
O       5.82903     15.59254      2.62222         0.277171     -0.721643     -0.332104
O       5.79812     15.56979     14.91157         0.011728     -0.274800      0.163622
O       5.69880      3.82768      6.64144         0.256292      1.330660      0.223894
O       5.88813     15.57677      6.95095         0.051096     -0.186425     -0.388243
O       5.88276      3.95934     10.89527        -0.596431     -0.446693     -0.116838
O       5.85340     15.56722     10.92451        -0.241750     -0.939891     -0.294184
O       5.62779      7.75254      2.58037         1.187308      0.243626     -0.322172
O       5.71289      7.66185     15.09418         0.064273      0.292885     -0.390558
O       5.91400      7.77307      6.76397         0.127939      0.443297     -0.457417
O       5.92174      7.71217     10.80711         0.065633      1.599996      0.280510
O       5.89484     11.63711      2.46075         0.041065      0.307119     -0.136783
O       5.88267     11.58225     14.97708         0.000292      0.588150      0.002908
O       5.74471     11.63836      6.81705         0.381481     -0.533563     -0.281204
O       5.87747     11.57746     11.10458        -0.313609      0.617100     -1.248392
O       9.90874      3.88772      2.50539        -0.403306      0.120184     -0.051849
O       9.57901      3.90906     15.10642         0.547652     -0.094214     -0.197131
O       9.71384      0.03628      2.53465        -0.122644     -0.623790      0.312061
O       9.56932      0.03825     14.96120         0.389365     -1.096860     -0.334922
O       9.80467      3.84657      6.77491        -0.383862     -0.341577     -0.387400
O       9.73684     15.51267      6.59334        -0.108352      0.095139     -0.015128
O       9.71872      3.83117     10.82125        -0.005009      0.127211     -0.087517
O       9.66148     15.58498     10.90876         0.216324     -0.553268      0.353466
O       9.82365      7.85640      2.58801        -0.193544     -0.031416     -0.228297
O       9.81670      7.75004     14.92517        -0.256879     -0.109278      0.385553
O       9.73902      7.69226      6.43257        -0.160177      1.072043      0.486359
O       9.78325      7.75593     10.95976        -0.397648     -0.441246     -0.019521
O       9.58347     11.74648      2.39748         0.404140     -0.189741     -0.345408
O       9.75073     11.68199     15.10808         0.101059      0.265171     -0.198499
O       9.71819     11.54273      6.81252         0.159159      1.590898     -0.154465
O       9.72134     11.59863     10.99926         0.219412      0.707614     -0.991002
