  # total energy = -7882.11847596 
CRSYTAL
PRIMVEC
    15.6080000000000005    0.0000000000000000    0.0000000000000000
     0.0000000000000000   15.6080000000000005    0.0000000000000000
     0.0000000000000000    0.0000000000000000   16.6239999999999988
PRESSURE
-1.1242 -0.923429 -0.317872 -0.148493 0.208238 -0.044931
PRIMCOORD
320 1
Pb       3.99822      3.85731      4.19554        -0.284736      0.612305     -0.378831
Pb       3.89267      3.89087      0.01158        -0.109781     -0.086758     -0.418419
Pb       3.92917      0.02897      4.12389         0.177292     -0.177553      0.021876
Pb       3.83526     15.54680     16.55147         0.085540      0.233394     -0.379225
Pb      15.50696      3.85347      4.09182         0.579280      0.293782      0.596212
Pb      15.57851      3.81501     16.59697        -0.003400      0.205697     -0.288368
Pb       0.00538     15.57358      4.07882        -0.136318      0.303079      0.659818
Pb       0.04215      0.00851      0.00048        -0.072712     -0.255441     -0.295613
Pb       3.87153      3.87497      8.27614         0.334931     -0.089602      0.412163
Pb       3.98112      0.11581      8.31591        -0.139905     -0.490719     -0.141173
Pb      15.54034      3.93908      8.23318         0.349167     -0.364493      0.472589
Pb       0.05382     15.59135      8.26323         0.221924      0.189950     -0.103671
Pb       3.70483      3.99965     12.60969         0.745516     -0.462667     -0.363516
Pb       3.80880     15.46762     12.49458         0.202615      0.228305     -0.344338
Pb      15.56531      3.88178     12.46958         0.295306     -0.570921     -0.504126
Pb       0.09179     15.59549     12.46466        -0.160125     -0.436157     -0.361692
Pb       3.74347      7.86368      4.02214         0.299071     -0.573319      0.661044
Pb       3.82232      7.67209     16.57393         0.470146      0.713764     -0.159033
Pb       0.02085      7.88767      4.02930         0.115476     -0.455746      0.466649
Pb      15.55953      7.77350     16.60383        -0.060750      0.096561      0.014123
Pb       3.94097      7.78421      8.33275        -0.083176      0.114152     -0.379540
Pb      15.42693      7.76698      8.49339         0.678448      0.125128     -0.950796
Pb       3.88040      7.85649     12.51522         0.261372     -0.484892     -0.421568
Pb      15.44263      7.72298     12.48100         0.378375      0.442722      0.113763
Pb       3.89726     11.71298      4.11282        -0.257406     -0.224934      0.313488
Pb       3.88118     11.67756     16.53985         0.151497     -0.534897     -0.412119
Pb      15.58632     11.80472      4.10977         0.020882     -0.465677      0.173470
Pb       0.00677     11.80845      0.05915         0.040702     -0.241390      0.137125
Pb       3.84956     11.83739      8.32452         0.370301     -0.664311     -0.595381
Pb      15.49133     11.67833      8.16199         0.617952     -0.164391      0.366304
Pb       3.83429     11.76323     12.39005         0.086646     -0.087977     -0.190460
Pb       0.00428     11.53975     12.41352         0.057314      0.648648     -0.481228
Pb       7.73707      3.73621      4.12273        -0.066425      0.460706      0.027989
Pb       7.67031      3.80772     16.56176         0.749670     -0.233816     -0.008042
Pb       7.73470     15.51264      4.12600         0.053203      0.388784     -0.374991
Pb       7.78486     15.60256      0.00488         0.404117      0.069988     -0.033305
Pb       7.74198      3.84552      8.48049        -0.331432      0.045175     -0.499336
Pb       7.87180     15.55157      8.39945        -0.694701      0.134514     -0.397473
Pb       7.79288      3.79298     12.50603        -0.444193      0.224656     -0.382850
Pb       7.88742      0.02839     12.52809        -0.645093      0.033122     -0.499632
Pb       7.77455      7.80111      4.02319        -0.142828     -0.185186      0.738099
Pb       7.74857      7.83751     16.53926         0.286467     -0.227493     -0.271250
Pb       7.94679      7.86040      8.28883        -0.743577     -0.088238     -0.188217
Pb       7.93972      7.64530     12.45991        -0.724718      0.487021      0.135291
Pb       7.80985     11.76787      4.03716        -0.178366     -0.355481      0.693612
Pb       7.77044     11.66590     16.51062         0.004969      0.116169      0.343428
Pb       7.69027     11.69505      8.28985        -0.576287     -0.098654     -0.622224
Pb       7.81299     11.58246     12.47135        -0.411254     -0.021369     -0.738430
Pb      11.76398      3.91806      4.29398        -0.339524     -0.132151     -0.278441
Pb      11.75482      4.03609      0.13255        -0.372426     -0.655543     -0.564440
Pb      11.57330      0.07224      4.18720        -0.065007      0.232440      0.129347
Pb      11.64640     15.58682     16.55066        -0.135664     -0.339684      0.040537
Pb      11.63713      4.04164      8.37867         0.192675     -0.519107     -0.514959
Pb      11.50592     15.57506      8.27626         0.365168      0.434277     -0.037200
Pb      11.76366      3.76488     12.45691        -0.135766      0.159623     -0.145757
Pb      11.64610     15.48512     12.38652         0.369968      0.059028     -0.078609
Pb      11.74380      7.62049      3.97832        -0.382657      0.735051      0.470723
Pb      11.67096      7.79180      0.01670        -0.263205      0.221279     -0.563425
Pb      11.65429      7.83366      8.18334        -0.203622     -0.162277     -0.092566
Pb      11.53011      7.87806     12.50848         0.405331     -0.192583      0.238077
Pb      11.73372     11.58380      4.30688        -0.033400     -0.121218     -0.675108
Pb      11.89356     11.71558     16.58543        -0.563088      0.114494      0.058608
Pb      11.75455     11.79686      8.38124         0.146414      0.093529     -0.483103
Pb      11.63917     11.69481     12.35456         0.523370      0.052114      0.145087
Ti       1.92315      1.96423      2.11788         0.075173      0.865621     -0.048644
Ti       1.93632      1.93724     14.58165         0.232360     -0.311090     -0.456219
Ti       1.91896     13.82506      2.18069        -0.010014     -2.277132      1.097492
Ti       1.86809     13.59370     14.68006         0.338242      0.244917     -1.584608
Ti      13.57986      1.93057      2.17391         0.092229     -0.164206      0.926688
Ti      13.67808      1.76467     14.63130        -0.292813      0.956426     -0.562205
Ti      13.58960     13.74157      2.26984         0.816737     -1.099504     -0.776902
Ti      13.68999     13.57689     14.66833        -0.088460     -0.238317     -1.008513
Ti       2.00087      1.88457      6.29864        -0.619201     -0.303710      0.826241
Ti       1.96571     13.59006      6.35185         0.418128      0.388112      0.020967
Ti      13.61250      1.89796      6.45776        -0.032156      0.188646      0.156762
Ti      13.61367     13.69676      6.43456         0.006627     -0.545054     -0.125491
Ti       1.97297      1.91392     10.52519        -0.268078     -0.016254      0.562108
Ti       1.96966     13.63185     10.42159        -1.002469     -0.872315      0.586744
Ti      13.69101      1.93621     10.51927         0.431244     -0.285082     -0.012312
Ti      13.67948     13.67937     10.46517         0.843124     -1.101453     -0.363165
Ti       1.97090      5.77968      2.18951         0.209586      0.367509      0.850206
Ti       1.98330      5.82302     14.67642        -0.462694      0.386916     -0.220084
Ti      13.64802      5.74831      2.24715         0.396458      1.095704      1.647192
Ti      13.66902      5.67901     14.61605        -0.138042      0.768408      1.072163
Ti       1.98459      5.71652      6.44835        -0.892609      1.052167     -1.311608
Ti      13.60458      5.86497      6.44369         0.967183     -0.348395     -1.303725
Ti       1.96035      5.73173     10.50423         0.111043      0.403373     -0.672353
Ti      13.63489      5.85776     10.59790        -0.578205     -0.240357      0.062598
Ti       1.93989      9.80041      2.08390        -0.490427     -0.298420      1.482082
Ti       1.88099      9.69736     14.67105         0.403076      0.293652      0.137869
Ti      13.64411      9.80037      2.14698        -0.158120     -0.746217      1.281399
Ti      13.65135      9.68127     14.73082         0.306288      0.237980     -0.052216
Ti       1.98458      9.64242      6.46241        -0.110917      0.368978     -0.833648
Ti      13.65505      9.73740      6.25368         1.064273     -0.075573      0.252308
Ti       1.98232      9.60685     10.48466        -0.465746      0.805849     -0.716228
Ti      13.64018      9.68337     10.46780         0.087116      1.188316      0.201219
Ti       5.80726      1.96940      2.05917         0.496156     -0.651448      1.547764
Ti       5.79914      1.83977     14.62471         0.649907      1.065275      0.063589
Ti       5.83755     13.60292      2.14241         0.019307      1.151600      1.202246
Ti       5.81645     13.63954     14.68099         0.199778     -0.314892     -0.500225
Ti       5.84599      1.96431      6.40341         0.351642      0.199105      1.135701
Ti       5.82622     13.71746      6.25645        -0.270999     -1.252122      1.790317
Ti       5.75754      1.92403     10.62188         0.564073      0.108206      0.176012
Ti       5.88708     13.70469     10.52094         0.132438     -0.262703     -0.902192
Ti       5.87448      5.90056      2.08166        -0.704931      0.015054      1.497895
Ti       5.91851      5.75153     14.74670        -0.152926      1.020374     -1.819681
Ti       5.81648      5.82791      6.37359         1.700587      0.027153     -0.770697
Ti       5.75919      5.85860     10.58656         0.816435     -0.695251      0.844527
Ti       5.84422      9.79212      2.12937        -0.546636     -0.924865      0.010738
Ti       5.86032      9.71289     14.55010        -0.634759     -0.389250      1.300098
Ti       5.86545      9.65883      6.26670         0.125546      1.164333      1.347453
Ti       5.75563      9.71210     10.44719         1.638605      0.383497      1.600673
Ti       9.70967      1.93055      2.19234        -0.357006     -0.149053     -0.307347
Ti       9.86693      1.90911     14.70899        -1.145463     -0.014031      0.601006
Ti       9.89044     13.62933      2.23258        -1.342465     -0.162621     -1.105972
Ti       9.74182     13.61794     14.63570         0.553238      0.365036      0.476444
Ti       9.63910      2.00255      6.37892         0.117744     -0.383677      0.418489
Ti       9.68357     13.65167      6.32513        -0.138220      0.099803      0.640260
Ti       9.77754      1.95428     10.56696        -0.565106     -0.432457     -0.828714
Ti       9.69612     13.64723     10.48431        -0.441692     -0.569993      0.663395
Ti       9.66235      5.77103      2.17020        -0.148855      0.064319      0.274309
Ti       9.80509      5.71417     14.70892        -0.655869      1.321601      0.031549
Ti       9.63613      5.85633      6.36073        -0.206633      0.342992      0.226890
Ti       9.77344      5.81614     10.52089        -0.690258      0.360549      0.278192
Ti       9.70050      9.70594      2.19697         0.917300      0.394974      0.064341
Ti       9.74165      9.83443     14.69515         0.485941     -1.874269     -0.653906
Ti       9.81854      9.81408      6.36005        -1.688299     -0.913450      0.051450
Ti       9.75796      9.70675     10.47556        -0.942530      0.276079      0.754784
O       1.86883      1.96650      0.29657         0.312210     -0.210857      0.427816
O       1.90252      1.96894     12.78035        -0.068695     -0.247464      1.035380
O       1.74552     13.71559      0.44642         0.472395      0.367676     -1.447756
O       1.91000     13.59801     12.85114        -0.001173     -0.032968      0.901217
O      13.65904      1.89423      0.42477         0.011877      0.202075     -0.357089
O      13.69794      1.79045     12.80640        -0.322256      0.404540      1.050188
O      13.76317     13.60233      0.44544        -0.523225      0.576190      0.928535
O      13.75916     13.53882     12.88207        -0.233485      0.222733     -0.029355
O       2.07909      1.90284      4.52792        -0.090763     -0.056886     -0.429899
O       2.04436     13.75466      4.52772        -0.147640     -0.544633     -0.293961
O      13.57827      1.88653      4.66670        -0.043549      0.181472      0.237038
O      13.61094     13.61814      4.63001        -0.170031      0.369576     -0.123969
O       2.06741      1.83555      8.76299        -0.292294      0.103387     -0.275591
O       1.84281     13.68219      8.65792         0.316691     -0.098540      0.170436
O      13.79421      2.09255      8.78827        -0.416817     -0.678649     -1.020780
O      13.66253     13.47102      8.59140         0.032179      0.321953      1.524568
O       2.02525      5.85994      0.41025        -0.107579     -0.462173     -0.576127
O       1.89286      5.90621     12.87395         0.330213     -0.239919      0.793744
O      13.61315      5.56653      0.53310         0.056192      0.334609     -1.350924
O      13.63374      5.76751     12.84167         0.325057      0.116853      0.247757
O       1.99297      5.74182      4.62239         0.000719     -0.260216      0.840400
O      13.65571      5.71695      4.61051        -0.459143     -0.043363      0.397012
O       1.99663      5.60443      8.69957         0.070711      0.206770      0.383539
O      13.57919      5.94808      8.82226         0.096039     -0.323597     -0.373699
O       1.95663      9.74778      0.35612         0.219101     -0.309860     -1.104214
O       1.88530      9.80603     12.88653         0.282615     -0.714392     -0.254903
O      13.60742      9.66371      0.37354        -0.041425      0.406099     -0.054523
O      13.78622      9.68317     12.94794        -0.314598     -0.096637     -0.043711
O       1.97529      9.66396      4.59824        -0.120202     -0.020700      0.840052
O      13.73441      9.85583      4.48615        -0.116424     -0.397693      0.244635
O       1.98494      9.70673      8.69901         0.106897     -0.293250      0.558701
O      13.84340      9.72352      8.67739        -1.144752     -0.326398      0.423765
O       5.92118      1.94485      0.31898        -0.167309     -0.137124     -0.334195
O       5.88407      1.83388     12.85228         0.220788      0.244506      0.313228
O       5.93930     13.60685      0.38701        -0.591714     -0.005975     -0.418440
O       5.72138     13.67941     12.91910         0.333073      0.189016      0.554514
O       5.81592      2.04061      4.65753         0.011702     -0.105124     -1.575924
O       5.75345     13.59033      4.49705        -0.401855      0.462404     -0.775714
O       5.73871      1.85654      8.83489         0.070847      0.188698     -0.315389
O       5.99185     13.74980      8.67041        -0.278449     -0.123176      1.558345
O       5.84452      5.76771      0.32813        -0.121305     -0.006353     -0.639580
O       5.80986      5.79025     12.91282         0.192792     -0.174117      0.647724
O       5.98710      5.77260      4.59279        -0.450310     -0.175587     -0.042786
O       5.80025      5.85163      8.85283        -0.226757      0.011936     -1.189559
O       5.81187      9.89518      0.35734        -0.023230     -0.092843      0.551409
O       5.98102      9.83590     12.81228        -0.580208     -0.524988      0.254023
O       5.98424      9.71694      4.51209        -0.508005      0.101298     -0.583253
O       5.68191      9.80375      8.70485         0.414937     -0.278552      0.311823
O       9.71847      1.82371      0.39453         0.317384      0.144439      0.064841
O       9.89025      1.87642     12.93295        -0.079011     -0.212045     -1.261404
O       9.93418     13.62475      0.38304        -0.399069     -0.089757      1.075502
O       9.85836     13.63412     12.85862        -0.285484      0.137192      0.196495
O       9.64000      1.91732      4.59839         0.039918     -0.002989      0.007043
O       9.80067     13.58168      4.57203        -0.118926      0.583473     -0.374094
O       9.66079      2.03752      8.77593         0.515549     -0.181670      0.563528
O       9.55722     13.61720      8.71293         0.435877     -0.127014     -0.405754
O       9.73505      5.75396      0.39556         0.231822     -0.215105     -0.176587
O       9.63292      5.94495     12.93684         0.687448     -0.453330     -0.049393
O       9.64783      5.91448      4.60466         0.105950     -0.336269     -0.766117
O       9.82284      5.83169      8.73106         0.012318     -0.009639      0.271093
O       9.79200      9.83850      0.43118         0.003191     -0.125911     -0.027456
O       9.68973      9.59033     12.84783         0.365623      0.803339      1.424042
O       9.55096      9.51559      4.65874         0.300856      0.939387     -1.020369
O       9.78418      9.61860      8.69609         0.238578      0.564950      0.154754
O       3.90371      2.01482      2.34481        -0.216988     -0.576821      0.077091
O       3.92892      1.93312     14.86308        -0.448978     -0.215674      0.491777
O       3.77681     13.77896      2.35825         0.746274     -0.566471      0.048096
O       3.83003     13.68838     14.94565         0.903663      0.159852      0.801112
O      15.59263      1.95969      2.47815        -0.366349      0.012422      0.025332
O       0.01379      1.96861     14.85745        -0.463293      0.003529      0.416368
O      15.50223     13.58871      2.57536         0.439209      0.950934      0.215580
O       0.05134     13.78739     15.08547        -0.693881     -0.419393     -0.326421
O       3.91396      2.06823      6.71197        -0.460214     -0.327973     -0.258129
O       3.91379     13.55541      6.72238        -0.026362      0.294130     -0.348155
O       0.00347      1.72816      6.59335        -0.206429      0.465218      0.172454
O       0.08674     13.53084      6.51056        -1.587256      0.806111      0.308431
O       3.84737      1.87176     10.93353         0.430719      0.337702     -0.115137
O       3.90484     13.66860     10.70299        -0.219737     -0.270081      0.261115
O       0.04797      2.01189     10.79512        -0.421649     -0.628128      0.347298
O      15.58147     13.49490     10.82974        -0.346295      0.544693     -0.432378
O       3.92136      5.88899      2.54515         0.122243     -0.811416     -0.446172
O       3.96614      5.84312     14.98716        -1.503934     -0.142990      0.049731
O      15.57955      5.72171      2.60426        -0.021703     -0.027752     -0.681320
O      15.57483      5.81608     15.10571         0.105124     -0.484912     -0.501735
O       3.99440      5.67098      6.64096        -1.596220      0.080171      0.261285
O      15.59049      5.77091      6.75494         0.008721      0.242889     -0.010787
O       3.85654      5.59757     10.91999         0.479864      0.534780     -0.175902
O       0.02818      5.96683     10.84464        -0.768780     -0.602048     -0.205034
O       3.86328      9.62684      2.52873        -0.095034      1.102149     -0.558483
O       3.91520      9.69394     14.97546        -0.285334      0.108747     -0.339495
O      15.56856      9.55320      2.42815         0.344417      0.557335     -0.302712
O       0.04712      9.71174     14.98949        -0.810810     -0.055836      0.341896
O       3.90345      9.83550      6.70077        -0.036233     -0.521913     -0.411795
O      15.56601      9.74045      6.62876         0.310960     -0.267829     -0.022014
O       3.92996      9.87171     10.85874        -0.485090     -0.563316      0.242156
O       0.06170      9.51470     10.68710        -0.198997      0.179072      0.737902
O       7.81203      1.73704      2.53975        -1.136308      0.501088     -0.211839
O       7.92769      1.80897     14.97119        -0.524080      0.232457     -0.053133
O       7.73130     13.73414      2.57647         0.271660     -0.744144     -0.499520
O       7.81012     13.72501     15.01282         0.131729     -0.390279     -0.520144
O       7.72868      2.03057      6.88155         0.617040     -0.781397     -0.552753
O       7.68966     13.78154      6.59945         1.536805     -0.297034     -0.294807
O       7.81169      1.84954     10.82322         0.755587     -0.143134      0.620181
O       7.77948     13.77111     10.91085         0.690521     -0.219215      0.046697
O       7.74530      5.92948      2.43904         0.538764     -0.277366     -0.192881
O       7.78627      5.93447     14.96269         0.935575     -0.599170      0.411396
O       7.79898      6.01242      6.73434         0.118827     -0.785750      0.205652
O       7.81861      6.04539     10.79325         0.482487     -0.805991     -0.030276
O       7.74839      9.79174      2.41003         0.489802     -0.017038     -0.031666
O       7.77440      9.75356     15.08380         0.610712     -0.142857     -0.523807
O       7.74407      9.73560      6.81427         0.368987      0.196190     -0.198473
O       7.79447      9.71441     10.82078         0.367112     -0.098819     -0.570171
O      11.57908      1.97867      2.60863         1.449387     -0.133788     -0.192402
O      11.72736      1.94335     15.07578         0.956073     -0.088649     -0.246184
O      11.69677     13.64163      2.53388         0.790641     -0.137096      0.160481
O      11.82372     13.49098     14.92921        -0.900655      0.238355      0.182059
O      11.63199      1.86642      6.71942         0.313299      0.373200      0.013188
O      11.66103     13.67029      6.82628        -0.228919     -0.075401     -0.482228
O      11.76557      1.84752     10.79908        -1.024276      0.448041      0.225041
O      11.68366     13.51317     10.79020         0.433247      0.379405     -0.292948
O      11.58840      5.67387      2.56161         0.795015      0.024319     -0.173441
O      11.73129      5.73823     15.02398         0.278005      0.056780      0.026573
O      11.68433      5.80920      6.71148        -0.263790      0.066619      0.007933
O      11.66543      5.84211     10.90771         0.388390     -0.476808     -0.029522
O      11.67660      9.71551      2.69572         0.053785      0.110550     -0.618648
O      11.72049      9.82846     15.00349         0.010654     -0.012900     -0.243058
O      11.69709      9.74192      6.47936         0.565105      0.041196      0.456148
O      11.70146      9.69136     10.79772         0.118735      0.212384     -0.002785
O       1.99274      3.84139      2.43243        -0.224087      0.023498      0.030832
O       2.08189      3.89857     14.86983        -0.543489      0.114667      0.324251
O       1.77545      0.01918      2.41913         0.329886      1.036862      0.074754
O       1.93437      0.02553     14.79856         0.215947      0.107819      0.767030
O      13.59914      3.81768      2.63944        -0.186424     -0.210387     -0.279062
O      13.65498      3.83316     15.00186         0.129200     -0.043393     -0.293934
O      13.59936      0.03340      2.57812        -0.024061     -0.317898     -0.176493
O      13.64121     15.54001     14.88672         0.044670      0.489912      0.513940
O       1.82688      3.76061      6.71129         0.444646      0.339318     -0.188688
O       2.07072     15.53628      6.66389        -0.214668      0.682914     -0.057842
O      13.62816      3.93922      6.85353        -0.252061     -1.115266     -0.631752
O      13.58240     15.56547      6.92151         0.241670      0.273113     -0.714422
O       1.89682      3.88236     10.98698        -0.065233     -0.475897     -0.354161
O       1.91611     15.50889     10.90314        -0.156883      0.632365     -0.342207
O      13.60539      3.83163     10.87586         0.230391      1.239645      0.186919
O      13.65701     15.52340     10.68936         0.157918     -0.106073      0.054727
O       1.94845      7.66869      2.53288        -0.380000      0.663432     -0.278347
O       1.80051      7.75751     14.99989         0.973961     -0.137982     -0.075946
O      13.64508      7.74699      2.48122        -0.484174     -0.967716     -0.038975
O      13.64809      7.76726     15.09407        -0.040603     -0.491144     -0.390307
O       2.03088      7.66178      6.77683         0.040414      0.623467     -0.129352
O      13.66967      7.75597      6.62753        -0.334945      0.604085      0.161844
O       2.22374      7.63800     10.61043        -0.084696      1.573188      0.641250
O      13.64256      7.78177     10.85682        -0.138090     -0.347959      0.119176
O       1.73449     11.63955      2.30126         0.825274      0.423207      0.684961
O       1.91084     11.72364     15.00938         0.109838     -0.319131      0.103980
O      13.69420     11.64326      2.47747        -0.314709      0.684859     -0.057085
O      13.81918     11.70465     15.08448        -0.134425     -0.670767     -0.237231
O       1.92424     11.65840      6.79721         0.338463      0.005625     -0.665126
O      13.60176     11.69960      6.63034        -0.260526     -0.399869      0.038810
O       1.96236     11.65573     10.86257        -0.006342     -0.031259     -0.438095
O      13.56797     11.58994     10.81107         0.500577     -0.230085     -0.115476
O       5.92930      3.88044      2.33798        -0.054878     -0.387177      0.337915
O       5.93623      3.81419     14.99550        -0.169108      0.026082     -0.095332
O       5.74856     15.59249      2.53489         0.074453      0.129652     -0.354846
O       5.93775      0.04802     15.08797        -0.835276     -1.710334     -0.160371
O       5.93642      3.88513      6.71873        -0.043991      0.549562      0.418845
O       5.74462      0.07171      6.63445        -0.047570     -0.701921     -0.306744
O       6.02710      3.85772     10.82880        -0.222931     -0.122496      0.190518
O       5.82875     15.58962     10.95554        -0.085383     -0.136095     -0.174739
O       5.80605      7.81383      2.32972         0.293714      0.127475     -0.011930
O       5.85436      7.73186     15.00429        -0.026317      1.065553     -0.051789
O       5.86050      7.79189      6.62548        -0.590633     -0.083257      0.205693
O       5.69824      7.76537     10.93428        -0.338784      0.709197     -0.454154
O       5.73239     11.71188      2.58030         0.014202      0.146034     -0.612052
O       5.85351     11.65436     14.94046        -0.064599      1.119986      0.003328
O       5.90884     11.74439      6.65581        -0.104971     -0.062763     -0.117556
O       5.98361     11.77648     10.94717        -0.549268     -0.325220     -0.766320
O       9.55170      3.81174      2.51603         0.217753      0.837717     -0.224574
O       9.74667      3.84879     14.85502        -0.024431      0.238539      0.380380
O       9.78218     15.54552      2.48962         0.178936     -0.358134      0.465158
O       9.93802     15.50677     14.87234        -0.050340      0.086604      0.433043
O       9.63166      3.87127      6.65518         0.469007      0.816577      0.079961
O       9.67807     15.60247      6.60784         0.179454     -0.104311      0.511816
O       9.67090      3.86939     10.91098         0.527636      0.257295     -0.089658
O       9.81606     15.51673     10.65154         0.170157      1.130093      0.858672
O       9.81286      7.76224      2.38737        -0.313974      0.000449      0.157860
O       9.90838      7.79430     15.04548        -0.481208      0.282934      0.156503
O       9.71573      7.84087      6.67324         0.643499     -0.652800      0.675379
O       9.88564      7.81551     10.91792        -0.677835     -0.586539     -0.722439
O       9.76602     11.66438      2.74310        -0.029062      0.132466     -0.908783
O       9.70782     11.67337     14.96168        -0.018448      0.413351     -0.189101
O       9.77583     11.74921      6.62033        -0.294429     -0.426104      0.127060
O       9.71341     11.71311     10.94435         0.031326     -0.827152     -0.753351
