  # total energy = -7882.78405463 
CRSYTAL
PRIMVEC
    15.6080000000000005    0.0000000000000000    0.0000000000000000
     0.0000000000000000   15.6080000000000005    0.0000000000000000
     0.0000000000000000    0.0000000000000000   16.6239999999999988
PRESSURE
-1.19553 -1.41186 -1.43307 -0.214197 0.300388 -0.121788
PRIMCOORD
320 1
Pb       3.98941      3.84249      4.11346        -0.310696      0.289530     -0.333548
Pb       4.07267      4.01180      0.11750        -0.687012     -0.279216     -0.301125
Pb       3.91201      0.01391      3.97567        -0.256747     -0.294505      0.146012
Pb       3.80945     15.57037     16.57872         0.202576      0.074495     -0.326448
Pb       0.05794      3.84191      4.14587         0.105051      0.235737     -0.150266
Pb      15.55917      3.78205     16.60282         0.133852      0.227177     -0.053044
Pb      15.55676     15.49040      3.99482         0.407108      0.000701      0.584678
Pb      15.56877     15.57807     16.57886        -0.343023      0.002307     -0.779495
Pb       3.70006      3.74250      8.28635         0.325658      0.279149      0.112954
Pb       3.84771      0.02168      8.17304         0.018401     -0.375737      0.555855
Pb      15.46637      3.81256      8.28384         0.209175     -0.041406      0.169530
Pb      15.60465     15.56125      8.21397         0.065926     -0.003488      0.319234
Pb       3.78007      3.88740     12.49296         0.473446     -0.177490     -0.553292
Pb       3.84196     15.47919     12.48569         0.030043      0.696691     -0.509544
Pb       0.07585      3.97074     12.52661        -0.712588     -0.203307     -0.321635
Pb       0.04836      0.21982     12.69489        -0.139037     -0.627217     -0.862156
Pb       3.81055      7.89678      4.12775         0.523414     -0.419119      0.010773
Pb       3.86286      7.75631     16.53938         0.251910      0.044630     -0.190454
Pb       0.05362      7.87687      4.21114        -0.529846      0.079412     -0.171921
Pb      15.59540      7.75654     16.55159         0.175796      0.022001      0.096123
Pb       3.86632      7.69747      8.28758        -0.067339      0.140893     -0.405292
Pb      15.29598      7.71115      8.60568         0.596417      0.392592     -0.221933
Pb       3.94110      7.81700     12.39852        -0.389745     -0.361783     -0.271235
Pb      15.51615      7.90203     12.57133         0.321890     -0.121311     -0.986569
Pb       3.81863     11.71105      4.01633         0.065744      0.140252      0.450669
Pb       3.83806     11.71855     16.55238        -0.043137     -0.024505     -0.160802
Pb      15.53516     11.65932      4.02207        -0.115683     -0.246166      0.059191
Pb      15.54845     11.77913     16.56411         0.145831     -0.035157     -0.202794
Pb       3.82608     11.75840      8.18676         0.243126     -0.495235      0.093194
Pb      15.60739     11.64201      8.25064         0.020284     -0.044908      0.388874
Pb       3.94721     11.62840     12.33045        -0.104471      0.119574     -0.134704
Pb       0.15810     11.65359     12.42297        -0.294109      0.200027     -0.727260
Pb       7.78221      3.67641      4.17606         0.413778      0.737619      0.214710
Pb       7.79253      4.01289     16.60051         0.438687     -0.785656      0.417091
Pb       7.70562     15.49420      4.09076         0.402877      0.147578      0.028561
Pb       7.83085      0.16414      0.04989        -0.055882      0.025672     -0.077169
Pb       7.65484      3.87713      8.39666         0.487345      0.187314     -0.690207
Pb       7.87925      0.00556      8.25417         0.039239     -0.504714     -0.505321
Pb       7.76643      3.70489     12.41754        -0.036504      0.637711      0.007821
Pb       7.67289     15.54427     12.48815        -0.125880     -0.031982     -0.524575
Pb       7.78834      7.84059      4.18471        -0.037710     -0.106732     -0.265846
Pb       7.64971      7.84425     16.58809         0.267309     -0.090851     -0.075531
Pb       7.83463      7.72023      8.20284        -0.491723     -0.024196      0.003299
Pb       7.74238      7.67986     12.44181         0.121125      0.204427     -0.658423
Pb       7.90651     11.74568      4.23823        -0.037259     -0.450112     -0.276753
Pb       7.63916     11.78180     16.57145         0.365898     -0.259703     -0.292908
Pb       7.75346     11.75227      8.22300        -0.152028      0.203001     -0.026584
Pb       7.74995     11.57796     12.39237        -0.321688      0.112546      0.020157
Pb      11.87674      3.80015      4.34392        -0.513802      0.412951     -0.516743
Pb      11.76375      4.06282      0.19995        -0.365769     -0.249837     -0.109420
Pb      11.58736     15.43675      4.14282        -0.024724      0.191615     -0.159660
Pb      11.58479     15.51825     16.60577         0.584921      0.180909      0.160340
Pb      11.73767      4.11844      8.48157        -0.073712     -0.523281     -0.765599
Pb      11.68088      0.17161      8.33998        -0.023627     -0.179452     -0.471363
Pb      11.79220      3.82920     12.57301         0.126493      0.123487     -0.760029
Pb      11.62127      0.03213     12.42736         0.348741     -0.054711     -0.499976
Pb      11.77710      7.74255      4.20050         0.034638     -0.193428     -0.343490
Pb      11.55443      7.82066      0.01185         0.010145     -0.500995     -0.172829
Pb      11.63687      7.83766      8.34627         0.350467     -0.347521     -0.293085
Pb      11.46332      8.01244     12.63841         0.455247     -0.122425     -0.523752
Pb      11.83372     11.34846      4.21919        -0.109159      0.653884     -0.259002
Pb      11.66390     11.70408     16.52066        -0.071075      0.072419      0.197669
Pb      11.90149     11.94076      8.53714        -0.174970     -0.482121     -0.458072
Pb      11.56654     11.84780     12.40313         0.242253     -0.442075     -0.048018
Ti       1.94042      1.98194      2.11871         0.271221      0.299436      0.064016
Ti       1.97790      2.00217     14.69558        -0.312826     -0.260078      0.281122
Ti       1.92570     13.64785      2.10386        -0.285211     -0.172910     -0.037520
Ti       1.93713     13.64003     14.61086        -0.156195     -0.537089      1.843612
Ti      13.69278      1.86047      2.20988        -1.515451      0.713739     -0.288079
Ti      13.52952      1.92638     14.65223         1.687221     -0.319556      0.007338
Ti      13.61234     13.67224      2.17849        -0.524679     -1.894205      0.055404
Ti      13.61693     13.59617     14.56355         0.408159      0.834160      1.514903
Ti       1.98309      1.82683      6.21922        -0.787081      0.774540     -0.305548
Ti       1.92753     13.58809      6.35025        -0.637091     -0.311588     -0.855277
Ti      13.64783      1.90111      6.33622        -0.138792     -0.216490      0.282015
Ti      13.64580     13.60971      6.33684         0.086171     -0.201698      0.604986
Ti       1.98019      1.92308     10.54451        -0.145000     -1.011400     -0.267351
Ti       1.97767     13.71099     10.55189        -1.627033     -0.178467     -0.273157
Ti      13.71903      1.87871     10.60671         0.033071      0.649983     -0.571169
Ti      13.76490     13.68403     10.56702         0.521161     -0.159947      0.656894
Ti       1.89976      5.89236      2.26029         0.112926     -0.684593     -0.496255
Ti       2.02787      5.75922     14.65283        -0.076576      0.252588     -0.241426
Ti      13.60239      5.78243      2.21732         0.055980      0.316410      0.313293
Ti      13.72071      5.82670     14.71324        -0.500268     -0.437620     -1.265595
Ti       2.03024      5.77005      6.36103        -0.587408      0.378741     -0.850723
Ti      13.82870      5.80269      6.36880        -1.500647      0.498422     -0.209158
Ti       1.84656      5.79098     10.48662         0.586560      0.693276      0.487935
Ti      13.56820      5.82080     10.63393         1.889259     -0.136481     -0.122230
Ti       1.96585      9.76724      2.13617        -0.785356     -0.229408     -0.087395
Ti       1.94287      9.70319     14.70890         0.010659      0.794306     -0.483659
Ti      13.60897      9.66074      2.04526         0.490833      0.340784      0.478024
Ti      13.67644      9.73505     14.64036        -0.276828     -0.256926     -0.165430
Ti       1.96761      9.64335      6.29911        -0.584380      0.475992      1.237324
Ti      13.66531      9.71109      6.48177         0.423661      0.024110      1.141233
Ti       1.98560      9.68716     10.47083        -1.249759     -0.206223     -0.197342
Ti      13.66232      9.77741     10.54907         0.577028      0.162460     -0.014041
Ti       5.87634      1.92770      2.18335        -0.380892      0.193346     -0.858135
Ti       5.79115      1.91599     14.74565        -0.046436     -0.269259     -0.329722
Ti       5.82204     13.57438      2.10238        -0.057056      0.457903      0.393617
Ti       5.80454     13.65601     14.55665         0.122680     -0.056740      0.542861
Ti       5.84899      1.89486      6.31850         0.606219      0.120777     -0.372097
Ti       5.82107     13.63915      6.21804         0.521694     -0.433346      0.238787
Ti       5.86938      1.93600     10.47834        -1.034538     -0.488403      0.240154
Ti       5.85156     13.66225     10.46635         0.008455     -0.325684     -0.866963
Ti       5.82167      5.87280      2.17493         0.383066      0.243271      1.841407
Ti       5.91375      5.77497     14.57207        -0.726859      0.897269     -0.489285
Ti       5.86956      5.71482      6.33747         0.147695      0.792675      0.295847
Ti       5.79027      5.79359     10.41677         0.230415      0.086260     -0.050740
Ti       5.86740      9.76819      2.18163         0.513221     -0.596207      0.292206
Ti       5.82734      9.79798     14.60008         0.236263     -0.336420      0.323288
Ti       5.84503      9.69326      6.32450        -0.159006      0.367144      0.183707
Ti       5.79831      9.69757     10.33064         0.900500      0.455227      0.271725
Ti       9.78278      1.90253      2.29277         0.440007      0.060230     -1.312376
Ti       9.73694      1.87959     14.59638        -0.344701      0.906815      0.017054
Ti       9.72577     13.54260      2.11437         0.424105     -0.301083     -0.138192
Ti       9.71027     13.62135     14.64669        -0.384547     -0.663293     -0.146808
Ti       9.73430      1.94199      6.39205         0.221287      0.358169      1.426999
Ti       9.82369     13.55279      6.30216        -0.311992      0.651871      2.387301
Ti       9.79441      1.98888     10.45934         0.493342     -0.268321     -0.425745
Ti       9.72797     13.67541     10.49632        -0.240152      0.084271     -0.181671
Ti       9.66795      5.77860      2.32839         0.791245      0.243746     -0.515121
Ti       9.77241      5.75804     14.64501         0.182515      0.508958     -0.103323
Ti       9.79142      5.81527      6.34673         0.103518     -1.633453     -0.658532
Ti       9.79939      5.84225     10.55971        -0.832203     -0.182921      0.437562
Ti       9.75893      9.71937      2.14274        -0.316713      0.008736      0.218690
Ti       9.71778      9.69534     14.71891        -0.580528      0.559944     -0.779660
Ti       9.77380      9.72894      6.39938         0.299522      0.275100      0.568596
Ti       9.70174      9.76967     10.46262        -0.136282     -0.015554      1.184730
O       1.93902      2.03745      0.33410        -0.043315     -0.492100      0.477448
O       2.04044      1.88933     12.90567        -0.137415      0.474076      0.121766
O       1.96427     13.54159      0.31619        -0.220390      0.627345      0.459882
O       2.08738     13.48300     12.88965        -0.216581      0.213525     -0.755350
O      13.63608      1.82193      0.42519        -0.089135      0.102820     -0.391803
O      13.62200      2.00908     12.83724        -0.018885     -0.206666      0.600794
O      13.65197     13.67767      0.43798         0.240519     -0.109545     -0.944348
O      13.50249     13.55345     12.86512        -0.267055     -0.035351     -1.492952
O       2.00486      2.03923      4.40557        -0.385910     -0.615792      1.026056
O       1.96118     13.61403      4.55156        -0.282123     -0.062670      0.378607
O      13.72140      1.94219      4.57083        -0.325733     -0.077383     -0.658149
O      13.67300     13.49666      4.56919        -0.090454      0.282972     -0.589755
O       2.07589      1.73377      8.71256        -0.080863      0.479546      0.202308
O       1.84047     13.80342      8.76423         0.279238     -0.204021     -0.278207
O      13.76127      1.87308      8.78597        -0.058397     -0.073574     -0.178619
O      13.79333     13.63100      8.77045        -0.207315      0.169394     -0.012178
O       2.04620      5.85540      0.44574        -0.029353      0.457141      0.469845
O       2.11730      5.66879     12.82950        -0.498755      0.150251      0.749864
O      13.64530      5.67638      0.39558        -0.359323      0.347811     -0.303210
O      13.78433      5.71397     12.84606        -0.206660      0.373002      1.107081
O       1.87685      5.81946      4.52812         0.219864     -0.270474      0.456549
O      13.68120      5.80232      4.57209         0.227573     -0.098717      0.084697
O       1.88772      5.80419      8.71335         0.406137      0.027938     -0.750927
O      13.71790      5.74386      8.77220         0.037964     -0.072151     -0.344834
O       1.96483      9.62297      0.36285        -0.152136      0.027395      0.125186
O       1.83578      9.71644     12.90547         0.401570      0.312609      0.306657
O      13.46985      9.63064      0.27131         0.340669      0.076170     -0.056090
O      13.67790      9.53955     12.78808         0.061769      0.470674      1.148229
O       1.87867      9.77151      4.52573         0.256032     -0.072774     -0.649729
O      13.61140      9.64110      4.72251        -0.268384      0.284097     -1.381733
O       2.14250      9.53868      8.70545        -0.276946      0.416448     -0.188118
O      13.83969      9.81146      8.75254        -0.457381     -0.561315     -0.323227
O       5.85910      1.87840      0.33650         0.180718     -0.099831      0.733294
O       5.95267      1.94469     12.94849         0.115526     -0.081153     -0.161812
O       5.82448     13.61883      0.30288         0.186269      0.073618      0.750416
O       5.72966     13.67776     12.76628         0.155007     -0.194062      0.024152
O       5.88366      2.00257      4.45654        -0.175717     -0.282684      0.624804
O       5.75407     13.62918      4.36952         0.280859     -0.014503      1.603537
O       5.76103      2.00853      8.68581         0.109380     -0.275297      0.387326
O       5.95748     13.52321      8.66719        -0.255820      0.594552      0.190797
O       5.80727      5.81361      0.43739        -0.035730      0.288599     -1.816114
O       5.91474      5.90651     12.75809         0.001920     -0.364066      0.950415
O       5.84985      5.81743      4.56445         0.291847     -0.142422     -0.243352
O       5.93340      5.80331      8.58952        -0.426492     -0.173432      1.320311
O       6.00467      9.71592      0.40264        -0.543205      0.088856     -0.007736
O       5.86745      9.83918     12.83203        -0.299900     -0.360033     -0.102718
O       5.86743      9.66647      4.52292         0.073633      0.291879     -0.479328
O       5.84891      9.82148      8.55938        -0.285296     -0.137260      0.457531
O       9.71288      1.88854      0.43418         0.369051     -0.258595      0.806451
O       9.69275      1.89870     12.76138         0.207039     -0.291354      1.050876
O       9.61124     13.43389      0.30991         0.374347      0.700542      0.017853
O       9.87724     13.73150     12.84189        -0.089365     -0.027960      0.311537
O       9.55431      1.72202      4.67277         0.214416      0.336972     -2.368018
O       9.84547     13.51629      4.59768        -0.095513      0.444111     -2.317177
O       9.72723      1.91650      8.64946         0.051769      0.280787      0.698395
O       9.72300     13.46755      8.74720        -0.259196      0.125774     -0.449372
O       9.98838      5.66457      0.46310        -0.620263      0.010464      0.358548
O       9.66489      5.89015     12.84390         0.302138      0.221781      0.561197
O       9.61223      5.72630      4.52007         0.453043      0.675006      0.253454
O       9.93792      5.71377      8.78884        -0.448380      0.405914     -0.108919
O       9.78181      9.80205      0.34707         0.215793     -0.368025     -0.175425
O       9.75066      9.71662     12.85410        -0.012938     -0.457335      0.359451
O       9.87091      9.53726      4.64492         0.097226      0.259411     -0.827163
O       9.69807      9.88171      8.74455         0.170329     -0.415174     -0.796806
O       3.90604      1.88510      2.41759        -0.289349     -0.003141     -0.023544
O       3.85162      1.91812     15.04931         1.461392     -0.396471     -0.105013
O       3.77439     13.71591      2.49054         1.032401      0.211051     -0.387724
O       3.91702     13.61642     14.95268        -0.600068      0.142196      0.082068
O      15.52197      2.03830      2.41518         1.069389     -0.156239      0.283734
O       0.06365      1.92817     14.92320        -0.315559      0.010879      0.286261
O      15.58798     13.51247      2.49863         0.412827      0.347205     -0.061125
O      15.53255     13.67104     14.94179         0.829750     -0.570868     -0.021371
O       3.90974      1.80523      6.48052        -0.194409      0.393941      0.385966
O       3.90319     13.60659      6.63533         0.348550     -0.052963     -0.095187
O      15.60154      1.87242      6.57626         0.635061     -0.069963      0.054143
O      15.59499     13.56782      6.74566         0.247978      0.682583     -0.763831
O       3.86363      1.84185     10.92147         1.356597      0.302420     -0.317697
O       3.80878     13.71671     10.67385         1.568638     -0.273749      0.450301
O       0.07357      1.85112     10.92072        -0.525036      0.353208     -0.025534
O      15.57890     13.71317     11.07930         0.528271     -0.311051     -0.357497
O       3.94363      5.90771      2.50783        -0.981377      0.187748      0.147164
O       3.97723      5.85081     14.91678        -0.065194      0.050963      0.305608
O      15.51305      5.71872      2.42942         1.025913      0.072727      0.285995
O       0.12707      5.63037     15.00767        -0.524039      0.990395     -0.130501
O       3.95179      5.77645      6.61316        -0.675717     -0.104942      0.315612
O       0.05993      5.71978      6.66063         0.301409      0.111187     -0.055718
O       3.91192      5.70597     10.70821         0.304941      0.250959      0.084877
O       0.03695      5.59946     10.84255         0.072426      0.749254     -0.075257
O       3.87702      9.67198      2.37403         0.274752     -0.296135      0.404354
O       3.89548      9.77838     14.94680        -0.126066     -0.211090      0.015967
O      15.54155      9.74185      2.44556         0.532183     -0.034564     -0.084089
O      15.57645      9.76465     15.05659        -0.415446     -0.293612     -0.243536
O       3.91161      9.84244      6.51957         0.031873      0.062527      0.150024
O      15.59195      9.67073      6.60408         1.372313      0.202710      0.226454
O       3.88451      9.67851     10.87584         0.533431      0.358757     -0.109758
O       0.07102      9.64075     10.76027         0.045906      0.275035      0.554265
O       7.75424      1.95212      2.52372         0.198761     -0.522554     -0.239645
O       7.86770      1.90911     15.14214        -0.047869      0.056294     -0.983399
O       7.80725     13.43673      2.52828        -0.871549      0.329390     -0.300568
O       7.73133     13.48064     14.78141         1.107684      0.617921      0.054358
O       7.76338      1.94416      6.65730        -0.716988     -0.070283      0.329131
O       7.85929     13.76289      6.56888        -0.734503     -0.525250     -0.226873
O       7.84950      2.00345     10.76037        -0.326752     -0.358536     -0.106176
O       7.76464     13.77342     10.81280         0.518972     -0.263318      0.266452
O       7.81032      5.78412      2.39328        -0.009023     -0.386446      0.082958
O       7.75750      5.75636     15.10486         0.357333      0.434912     -0.648296
O       7.80539      5.80803      6.72400        -0.079058      0.276947     -0.067052
O       7.82581      5.81171     10.75823         0.149016      0.000214     -0.086420
O       7.84620      9.86495      2.45265        -0.522458     -0.046186      0.474371
O       7.81812      9.78169     14.86935        -0.712852      0.082025      0.385322
O       7.89947      9.60554      6.53628        -0.755934     -0.058683      0.398331
O       7.69815      9.68677     10.70798         0.560637      0.230463      0.312259
O      11.65218      1.70920      2.61735         0.176782      0.023947      0.018093
O      11.71863      1.87587     14.84200        -1.159058      0.136846      0.180180
O      11.67691     13.71690      2.34055         0.001099     -0.142192      0.290430
O      11.77211     13.62881     15.05007        -1.439070      0.123093     -0.044550
O      11.61464      2.02957      6.61415         1.679716     -0.498330      0.103167
O      11.72237     13.52622      6.74133         0.149867      0.258250     -0.079663
O      11.80536      1.96492     10.73686        -1.135970     -0.601023      0.469659
O      11.70890     13.52618     10.60706        -0.041527     -0.157970      0.869456
O      11.71281      5.79456      2.64394        -0.240341      0.337083     -0.161940
O      11.71444      5.92929     14.90598         0.168842     -0.382256     -0.033275
O      11.74551      5.81848      6.66459         0.243379     -0.120994     -0.027042
O      11.80901      5.92090     10.79873        -1.813254     -0.107730      0.516649
O      11.72545      9.67151      2.59653        -0.227409     -0.334896     -0.403737
O      11.64265      9.52145     14.85446         0.870223      0.142325      0.077043
O      11.75651      9.70277      6.83512        -0.619861     -0.162954     -0.231788
O      11.75253      9.81882     10.72660        -0.958636     -0.198784      0.266843
O       1.99125      3.90396      2.49269        -0.047325      0.062443     -0.041980
O       2.13335      3.90375     15.01590        -0.312953     -0.103979     -0.351344
O       1.79579      0.01435      2.39779         0.158472     -0.017826     -0.086119
O       1.94710     15.53661     14.99258         0.079694      0.227997     -0.127698
O      13.38881      3.80790      2.48345         0.609876     -0.209907     -0.070488
O      13.78329      3.86162     14.96425        -0.896392     -0.246240      0.120520
O      13.74239     15.50474      2.48562         0.047572      0.988398      0.441603
O      13.72239     15.57864     14.86384        -0.334138      0.449689      0.234791
O       2.03112      3.80874      6.64155        -0.142729     -0.244451     -0.133142
O       1.96936     15.54984      6.61658        -0.104978      0.188457     -0.358370
O      13.72011      3.82565      6.64229        -0.107917      0.402535      0.098495
O      13.53945     15.55429      6.57757         0.306715      0.202998      0.221318
O       1.96682      3.79081     10.75179         0.369705      0.394519      0.188357
O       1.89542     15.56328     11.02996         0.294754      0.168647     -0.107354
O      13.65166      3.85524     10.84573        -0.013693     -0.068675      0.138267
O      13.68419     15.55851     10.98630        -0.427986      0.332745     -0.220350
O       1.82650      7.83752      2.61175         0.390790     -0.673974     -0.377488
O       1.93446      7.82857     14.86154         0.007040     -1.373390      0.576774
O      13.63563      7.76586      2.41781         0.031980     -0.405361      0.215066
O      13.78172      7.71798     14.91672         0.275868     -0.021209      0.170405
O       2.15017      7.74728      6.47015        -0.258324     -0.173914      0.210396
O      13.78598      7.76155      6.73211        -0.576378     -0.789253      0.241611
O       1.89223      7.73630     10.87573         0.641190     -0.576023     -0.000110
O      13.83660      7.77027     10.65215        -0.075703     -0.375037      0.391490
O       2.07206     11.70320      2.37804        -0.611747     -0.560253      0.144601
O       1.86782     11.68576     15.09901         0.220797     -0.025495     -0.509377
O      13.65059     11.58946      2.42322        -0.422139      0.301750      0.334305
O      13.58583     11.62736     14.93610         0.083527     -0.298089     -0.088863
O       1.91742     11.65330      6.68975         0.275144      0.426214      0.019180
O      13.71166     11.68757      6.77124        -0.232404     -0.057559     -0.272340
O       1.90621     11.67871     10.72619         0.293568     -0.193579      0.341199
O      13.88085     11.65751     10.77614        -0.681003      0.292707      0.349365
O       5.76403      3.90636      2.32317         0.101784     -0.800240      0.569880
O       5.86544      3.84109     14.93444        -0.042415      0.732661      0.204173
O       5.82178     15.55443      2.48137         0.373635      0.085357     -0.290679
O       5.87114     15.57673     14.86862         0.048177     -0.077507      0.314665
O       5.83639      3.84234      6.61806        -0.020370     -0.341753     -0.045920
O       5.87559     15.59571      6.59904        -0.111385     -0.433256     -0.247402
O       5.93557      3.85203     10.81346        -0.339921     -0.118911     -0.228001
O       5.85621     15.56246     10.79016         0.051364      1.294534      0.143414
O       5.99609      7.79165      2.53888        -0.368514      0.518488     -0.432426
O       5.84704      7.79617     14.91071         0.288155     -0.093718      0.108852
O       5.79133      7.86966      6.71499         0.257021     -1.170870     -0.236271
O       5.76260      7.79826     10.70240         0.060203     -0.528429     -0.029771
O       5.59508     11.72957      2.38344         0.569674     -0.665074     -0.024921
O       5.77989     11.70200     14.94143         0.085561     -0.273062     -0.013166
O       6.01275     11.70401      6.56698        -0.312948      0.650744     -0.361976
O       5.84715     11.74343     10.69158        -0.323926     -0.867706      0.551826
O       9.82356      3.76366      2.53300        -0.204498      0.181738      0.291115
O       9.75015      3.89219     14.76133         0.048168     -0.686732      0.518337
O       9.68114     15.44457      2.45517        -0.500294      0.416116      0.263103
O       9.80692     15.55711     14.95760        -0.421802      0.106520      0.024619
O       9.74157      3.90434      6.62359        -0.264975     -0.173797      0.116772
O       9.80726     15.58242      6.71287         0.155468     -0.460825      0.310803
O      10.00728      3.89440     10.80095        -0.695230     -0.097159      0.235907
O       9.86922      0.01815     10.61304        -0.083776     -0.264117      0.574973
O       9.67478      7.77046      2.41896         0.265532     -0.190002      0.133565
O       9.58018      7.74292     15.08569         0.544711      0.036077     -0.370654
O       9.81954      7.64032      6.81453        -0.145672      1.521980     -0.011760
O       9.73835      7.78447     10.80750         0.268777      0.651839     -0.155073
O       9.84079     11.61750      2.43928         0.152158      0.341018      0.709281
O       9.82116     11.68462     14.85187         0.281731      0.022499      0.071847
O       9.70951     11.63394      6.46336        -0.165450     -0.057930      0.383480
O       9.58022     11.72107     10.99391         0.758435     -0.431558     -0.758675
