  # total energy = -7881.47722942 
CRSYTAL
PRIMVEC
    15.6080000000000005    0.0000000000000000    0.0000000000000000
     0.0000000000000000   15.6080000000000005    0.0000000000000000
     0.0000000000000000    0.0000000000000000   16.6239999999999988
PRESSURE
-0.167442 -0.574417 0.036191 -0.065799 -0.057971 -0.039151
PRIMCOORD
320 1
Pb       3.79025      3.81808      4.08275         0.228706     -0.207401     -0.034854
Pb       3.75380      3.75563      0.01917         0.579494      0.606063      0.128539
Pb       3.91751     15.45742      4.27958         0.070637      0.560058     -0.276396
Pb       3.95666     15.56186      0.09607         0.000294     -0.161787     -0.456076
Pb      15.52691      3.84141      4.15183         0.144475      0.082856     -0.262697
Pb      15.55631      3.94725     16.57373        -0.079830     -0.061419     -0.131562
Pb       0.12365      0.00256      4.23869        -0.319036      0.055980      0.327669
Pb       0.02036     15.54085      0.01756         0.063716      0.034521     -0.318544
Pb       4.00210      4.03407      8.33496         0.499940     -0.511475      0.190298
Pb       3.88783      0.11209      8.50438         0.494101      0.053351     -0.661882
Pb       0.08857      3.92696      8.21858        -0.145782      0.063789      0.293100
Pb       0.05874      0.09036      8.30916         0.342276     -0.511326     -0.154915
Pb       3.92583      3.97235     12.32134        -0.196958     -0.630352      0.892186
Pb       3.89260      0.03560     12.31285        -0.204036     -0.127507      0.596485
Pb      15.51377      3.73077     12.23683         0.007618      1.044866      0.783089
Pb      15.43427     15.59747     12.35856         0.648226     -0.147290      0.309282
Pb       3.89104      7.70175      4.24817        -0.580209     -0.070303     -0.838467
Pb       3.81738      7.82622     16.61755         0.024217     -0.694568      0.426024
Pb      15.54937      7.78423      4.08250         0.087904     -0.016564     -0.169172
Pb       0.02469      7.79539      0.02411        -0.278624     -0.063467     -0.253675
Pb       4.02003      7.84823      8.24053        -0.120448     -0.112674     -0.181510
Pb       0.13902      7.85701      8.07846        -0.432431      0.047046      0.511043
Pb       3.74992      7.85220     12.51311         0.418648     -0.573569      0.431147
Pb       0.02194      7.75473     12.39458        -0.869587     -0.101792      0.865614
Pb       3.98976     11.63463      4.26772        -0.256962      0.167100     -0.662340
Pb       3.90496     11.64816     16.55283         0.040302      0.145201     -0.032160
Pb       0.06835     11.76201      4.21608        -0.271245      0.028530      0.004657
Pb       0.05037     11.70188      0.04261        -0.001837     -0.155797     -0.373840
Pb       3.89390     11.50560      8.26023        -0.243315      0.581127      0.534924
Pb      15.48124     11.72208      8.37428         0.509525      0.260586     -0.653660
Pb       3.77863     11.78606     12.60083        -0.116635      0.007856     -0.334142
Pb      15.42069     11.63027     12.39246         0.224362     -0.196498      0.368346
Pb       7.79131      4.04360      4.11203        -0.188217     -1.106474     -0.036484
Pb       7.66006      3.67995      0.07481         0.135338      0.054004     -0.257289
Pb       7.77248      0.02776      4.11046         0.146753      0.219379      0.046687
Pb       7.80439     15.38444     16.59011        -0.442107      0.993440      0.258509
Pb       7.81019      3.99064      8.14544        -0.418925     -0.591000      0.464550
Pb       7.74964     15.54103      8.43049        -0.160979      0.463326     -0.473150
Pb       7.75660      4.17089     12.44560        -0.010434     -1.907305      0.550374
Pb       7.83263      0.12874     12.47055         0.448969     -0.144980      0.312179
Pb       7.63474      7.77771      4.00548         0.451642     -0.202643      0.816118
Pb       7.92887      7.75280     16.57896        -0.708555     -0.038446      0.518745
Pb       7.74928      7.79791      8.43736         0.394662     -0.077900     -0.144148
Pb       7.75185      7.89219     12.57616         0.255490     -0.181041     -0.308311
Pb       7.73181     11.71096      4.10887        -0.153870      0.376972     -0.337205
Pb       7.86718     11.49910      0.01456        -0.309762      0.189878     -0.075548
Pb       7.63024     11.60815      8.39643         0.892622      0.102863      0.483843
Pb       7.70237     11.69779     12.55197         0.174512      0.202775     -0.219949
Pb      11.58752      4.03652      4.07924         0.419467     -0.339343      0.223165
Pb      11.68070      3.70613     16.38210         0.178675      0.786650      0.941882
Pb      11.92640      0.22619      4.20659        -0.480267     -0.126933      0.038110
Pb      11.74138     15.55640      0.05117         0.050292      0.419933     -0.687959
Pb      11.70306      3.70451      8.12286        -0.418131      0.219072      0.175470
Pb      11.66905     15.39283      8.23037        -0.332949      0.382662      0.069437
Pb      11.56717      3.92587     12.40037         0.403262     -0.507742      0.171437
Pb      11.89381     15.58774     12.51369        -1.091104     -0.052749     -0.117196
Pb      11.68792      7.86536      4.07134         0.356283     -0.174504      0.142365
Pb      11.65527      7.72776     16.55538         0.341004     -0.036612      0.051424
Pb      11.72863      7.80107      8.12585        -0.684226      0.234815      0.323660
Pb      11.87920      7.53149     12.41699        -0.713408      1.384679      0.746920
Pb      11.50565     12.03563      4.17250         0.750242     -1.010316      0.629380
Pb      11.80093     11.78712      0.00111        -0.266936     -0.353753     -0.093843
Pb      11.62057     11.52425      8.10220        -0.203792      0.527314      1.036033
Pb      11.59225     11.56711     12.44692         0.286349     -0.049885     -0.403870
Ti       1.89847      1.81374      2.18920         0.630571      0.671553      2.699842
Ti       1.99805      1.88189     14.56281        -0.713144      0.283155     -0.674611
Ti       1.89516     13.59964      2.26670         0.741763      0.105128     -0.483898
Ti       1.94459     13.69453     14.63020        -0.169662     -0.209034      0.999545
Ti      13.68181      1.98568      2.14641         0.215353     -0.089892     -0.113095
Ti      13.74559      1.91018     14.67869        -0.430001     -0.208594      0.192636
Ti      13.61502     13.68990      2.29742         1.132905     -0.514802      0.304359
Ti      13.65644     13.66730     14.74964         0.190352      0.179799      0.798707
Ti       2.08940      1.98514      6.47390        -0.165438     -0.384067     -0.636821
Ti       2.06284     13.69931      6.47249        -1.464507     -0.221888      0.067282
Ti      13.75605      1.91825      6.45092        -0.290487      0.085819     -0.973210
Ti      13.65695     13.66351      6.35413         0.958046     -0.650019      0.009667
Ti       1.91571      2.05653     10.43160         1.142188     -0.631388      0.310311
Ti       1.86945     13.70885     10.52584         0.312018     -0.871092     -1.144266
Ti      13.58113      1.90679     10.38033        -0.441112      0.460667      0.529038
Ti      13.62920     13.55048     10.42174        -1.027515     -0.134002      0.791042
Ti       1.90859      5.81177      2.26525         0.824678      0.321724      0.567583
Ti       1.87417      5.77612     14.69484         0.204445      0.765759      0.342594
Ti      13.64468      5.84855      2.18904         0.390286      0.656730     -1.138228
Ti      13.63449      5.83711     14.63950        -0.457279      0.701939      0.122055
Ti       1.90017      5.86209      6.34003         0.998857      0.008813     -0.008289
Ti      13.61104      5.81512      6.47737         0.116848      0.145015     -1.233307
Ti       1.96644      5.89035     10.48662        -0.480783     -0.175266      0.159001
Ti      13.62244      5.83188     10.41207         0.919584     -0.418638     -0.324175
Ti       2.03140      9.79151      2.26665        -0.528069     -0.801574      0.469267
Ti       1.88453      9.75754     14.61741        -0.468977     -0.048167      0.313763
Ti      13.70362      9.82260      2.18687         0.172332     -0.227516     -0.573079
Ti      13.54155      9.81416     14.69400         1.131237     -1.024886     -0.223342
Ti       1.90915      9.88549      6.32339        -0.009152     -0.720813     -0.171247
Ti      13.64254      9.78098      6.23839         0.007728     -0.315708      0.246919
Ti       1.98414      9.76105     10.55958        -0.866475      0.551155     -0.596467
Ti      13.64475      9.65588     10.40042        -0.655835      0.262228      1.492548
Ti       5.81118      1.87957      2.29237         0.377521      0.683879      0.041945
Ti       5.76431      1.89993     14.68124         1.084629     -0.153844     -0.675360
Ti       5.81047     13.64039      2.21547         0.010113     -0.496006     -1.097127
Ti       5.81435     13.62195     14.70768         0.007693      0.341167     -0.587992
Ti       5.86331      1.92923      6.43573         0.867631     -0.378210     -0.442751
Ti       5.81652     13.58166      6.53513         0.818087      1.553359     -0.081028
Ti       5.81830      1.84011     10.59518         0.894783      2.985369     -1.144413
Ti       5.79367     13.54617     10.56461         0.157609      0.064710     -0.622099
Ti       5.82914      5.78989      2.25887        -2.034599     -0.487984     -2.349186
Ti       5.69695      5.81495     14.76428        -0.193577     -0.275315      1.336541
Ti       5.73548      5.83625      6.28635         2.118583     -0.544577      1.275161
Ti       5.85102      5.83670     10.71157         0.220474     -0.519217     -1.441393
Ti       5.80679      9.64869      2.21123        -0.524145      0.260695     -1.187083
Ti       5.77706      9.61066     14.72756         0.406633      0.741807      0.260046
Ti       5.91131      9.75144      6.33329        -0.617427     -1.000943     -0.369996
Ti       5.79850      9.68852     10.64788         0.901149     -0.539132     -0.787356
Ti       9.80598      1.93894      2.17294        -1.275168     -0.033592      0.241029
Ti       9.72660      1.86440     14.76976        -0.640467     -0.164524     -0.449381
Ti       9.74276     13.67355      2.16839        -1.153026      0.898323      0.853055
Ti       9.69583     13.66070     14.71526         0.348747     -0.221244     -0.853732
Ti       9.74311      1.92181      6.22730        -0.897986      0.096440      0.490246
Ti       9.61579     13.67469      6.41254        -0.174922     -0.420816      0.271335
Ti       9.73174      1.89797     10.47276        -0.750800     -0.367959     -0.049720
Ti       9.72010     13.59179     10.53288         0.344015      0.295165     -0.253716
Ti       9.77443      5.89894      2.21777        -0.296528     -1.127232     -0.503323
Ti       9.62677      5.74667     14.72336         0.759495     -0.015491      0.777037
Ti       9.71322      5.83021      6.29506        -0.460343      0.564979     -0.129579
Ti       9.79126      5.78147     10.45468        -1.351613      1.054847     -0.094118
Ti       9.75240      9.75923      2.34581         0.104824     -0.315396     -1.651266
Ti       9.79384      9.74527     14.76778        -0.588540     -0.165829      0.125650
Ti       9.63405      9.74280      6.29671         0.554343     -0.515737     -0.295365
Ti       9.73698      9.61140     10.67409         0.420350     -0.274081     -1.587446
O       2.10527      1.81827      0.51099        -0.321736      0.043443     -1.986976
O       1.93000      2.06733     12.72230        -0.067195     -0.818036      1.632522
O       2.00322     13.62908      0.47429        -0.270067     -0.196727      0.328133
O       1.88494     13.67215     12.87466         0.023748     -0.171421     -0.788259
O      13.69468      1.83502      0.36217        -0.140710      0.658641      0.810913
O      13.63301      1.79974     12.88842         0.598334      0.072756     -0.670050
O      13.71296     13.57839      0.52452        -0.502311      0.427454     -0.391903
O      13.77026     13.80888     13.03168        -0.026616      0.007746     -1.769739
O       1.96620      1.80191      4.69159        -0.278793      0.218664     -0.219329
O       1.96726     13.69789      4.67149         0.045456      0.042212      0.118280
O      13.68322      1.97133      4.65641         0.126670     -0.269113     -0.759667
O      13.60714     13.56708      4.56187         0.015793      0.260154      0.044582
O       1.94031      2.00316      8.63810         0.171930     -0.472322      0.426038
O       1.76531     13.65687      8.71001         0.617598     -0.177535      0.456716
O      13.62601      1.95864      8.59921        -0.268967     -0.256753      1.018041
O      13.56469     13.53777      8.67837         0.130511      0.322191     -0.455669
O       1.95374      5.92333      0.52526        -0.463451     -0.426263     -1.347254
O       1.74675      5.92682     12.95851         0.568517     -0.635726     -0.927279
O      13.72916      5.90864      0.36752        -0.221615     -0.217387      0.814080
O      13.52757      5.79891     12.83704         0.306360     -0.339973      0.152446
O       1.97531      5.91889      4.59769        -0.193178     -0.768639     -0.689927
O      13.70380      5.82377      4.69271        -0.060563      0.050707     -0.359348
O       1.87878      5.88882      8.71834         0.453386      0.503833      0.318093
O      13.74332      5.83375      8.62364        -0.531354     -0.039836      0.045984
O       1.95555      9.83956      0.48992         0.197280      0.070634     -0.489790
O       2.00149      9.74971     12.82243         0.029534      0.077019      0.397035
O      13.73501      9.79964      0.32257        -0.249759      0.126393      1.060987
O      13.53111      9.73893     12.93028         0.004198      0.512400     -0.191766
O       1.94666      9.86878      4.55452         0.083503     -0.207387      0.218832
O      13.68468      9.63759      4.47482        -0.330471      0.580728     -0.026480
O       1.90940      9.71226      8.70782         0.260629     -0.170496      0.510120
O      13.69117      9.72411      8.66005        -0.154502     -0.192378     -0.362370
O       5.68337      1.87910      0.50191         0.234927      0.466068     -0.458877
O       5.68411      1.79669     12.87043         0.103424     -0.015617      0.506552
O       5.87979     13.64650      0.39553        -0.460189      0.096982      0.736706
O       5.86278     13.73567     12.87951        -0.147865     -0.596823     -0.313475
O       5.96375      1.93275      4.66488        -0.238148     -0.357678     -0.755047
O       5.87858     13.59889      4.76491         0.090056     -0.045069     -1.269382
O       5.81167      2.06414      8.78148        -0.032479     -0.488501      0.367948
O       5.86507     13.54429      8.74376        -0.649105      0.007518      1.128837
O       5.61358      5.85181      0.38863         0.687086     -0.551828      1.060776
O       5.54664      5.77044     13.00776         0.857620      0.288210     -1.171594
O       5.82408      5.88134      4.56921        -0.200671     -0.158807     -1.114847
O       5.83543      5.70547      8.93069        -0.009708      0.531173     -1.069033
O       5.80397      9.70025      0.38412        -0.040512      0.142499      0.254629
O       5.83857      9.61565     12.93757        -0.085387      0.316739     -1.078224
O       5.80653      9.65497      4.53222         0.272292      0.485205      0.684707
O       5.95136      9.65136      8.79090        -0.749745      0.031539      0.304618
O       9.77191      1.90294      0.35859         0.251623     -0.141605      0.858193
O       9.64550      1.80285     13.01763         0.341968      0.469897     -1.050031
O       9.73864     13.72890      0.42220         0.203075     -0.032121     -0.231328
O       9.59366     13.62629     12.91529         0.254277     -0.469724     -0.088145
O       9.71304      2.08093      4.44239         0.288493     -0.443962      0.760790
O       9.60969     13.43616      4.61249        -0.170850      0.347821      0.034726
O       9.74108      1.89106      8.68594         0.220897     -0.065538      0.593154
O       9.81535     13.73488      8.70872         0.033821      0.156229      0.492645
O       9.63275      5.91395      0.43686         0.380437     -0.016201     -0.038070
O       9.77318      5.62116     12.95895        -0.076053      0.308727     -0.131324
O       9.80351      5.81213      4.48605        -0.101095     -0.290852      0.576327
O       9.55273      5.95307      8.69060         0.728819     -0.328946      0.176139
O       9.63996      9.64284      0.51116        -0.484375      0.129470      0.110616
O       9.83249      9.75166     13.01341        -0.331929      0.289006     -1.219741
O       9.57677      9.77547      4.47382         0.251595      0.298122      0.408573
O       9.61751      9.44894      8.87193         0.384915      0.468504     -0.011970
O       3.90051      1.82690      2.64875        -0.765921     -0.064909     -0.022274
O       3.87355      1.79478     15.06490        -0.610651      0.305791     -0.500528
O       3.84889     13.75705      2.55799         0.920635     -0.043255      0.222209
O       3.89115     13.84027     14.90666         0.000933     -0.734715      0.130925
O       0.01852      2.01370      2.46793        -0.809680     -0.385218      0.237428
O       0.01111      1.87742     15.00486         0.839333      0.371544     -0.225877
O      15.59780     13.54401      2.59383        -0.506824     -0.017543      0.000573
O       0.01033     13.56152     15.13266         0.108624      0.383128     -0.277222
O       3.96323      1.93040      6.70082        -0.979226     -0.086374      0.323120
O       3.95280     13.56896      6.67536        -1.073558      0.015132      0.530371
O       0.02834      1.94873      6.73218         0.227843      0.084010      0.027401
O       0.01720     13.42107      6.64905        -0.635334      0.648009     -0.071038
O       3.83688      1.91184     10.77076        -0.279564     -0.154660     -0.084405
O       3.82099     13.58464     10.77227         0.523268      0.120604      0.358849
O       0.02888      1.98484     10.64220        -1.266702     -0.114140      0.206556
O      15.53173     13.51549     10.74568        -0.009012      0.199058      0.369238
O       3.85673      5.77324      2.61883        -0.038010     -0.076699      0.228797
O       3.75487      5.98754     15.12128         0.255294     -0.779495     -0.687930
O      15.59588      5.83120      2.50219        -0.570655     -0.045702      0.456768
O      15.55271      5.82001     15.03402        -0.031612     -0.207580      0.184822
O       3.95797      5.91004      6.68424        -1.250935     -0.180354      0.302023
O       0.08902      5.84343      6.65703        -1.275963     -0.220062      0.119330
O       3.92262      5.87131     10.85238        -1.973943      0.499543     -0.122063
O      15.48254      5.79044     10.76721         1.317588     -0.120819      0.221723
O       3.89876      9.59460      2.58582        -0.116598      0.623775      0.037973
O       3.88861      9.75816     14.93742        -0.838167     -0.248624      0.170759
O       0.00679      9.75746      2.38969        -0.116312      0.169590      0.587803
O      15.58910      9.96316     14.85702         0.384434     -0.299212      0.291787
O       3.94732      9.83400      6.58136        -0.186487     -0.488403      0.513625
O      15.57164      9.86284      6.49409         0.415121     -0.325810      0.494941
O       3.90015      9.57664     10.78242        -0.415256     -0.104273      0.045274
O      15.54869      9.78587     10.93323         0.109423     -0.516525     -0.688484
O       7.81451      2.04612      2.40837         0.249066     -0.087884      0.141011
O       7.76230      2.01829     15.00976        -0.849862     -0.225261      0.295703
O       7.71980     13.65980      2.50611         0.591804     -0.160232      0.216712
O       7.79931     13.63723     15.02845        -0.357142     -0.676845      0.060602
O       7.80828      2.00386      6.68688         0.839853     -0.370486      0.034628
O       7.72345     13.63982      6.97257         1.247372     -0.033001     -0.895030
O       7.74473      1.97706     10.92497         0.407352     -0.181714     -0.297198
O       7.71582     13.54148     10.73632         0.289074      0.033272      0.270506
O       7.66192      5.90134      2.48834         1.963342     -0.896128      0.178710
O       7.73694      5.80166     14.97345        -0.055671     -0.023585     -0.252403
O       7.81045      5.78993      6.51826        -0.060140     -0.038981      0.228686
O       7.79963      5.79948     10.91079         0.377230      0.134178      0.080792
O       7.62719      9.62744      2.52227         1.488900      0.456625     -0.001023
O       7.77662      9.68207     14.88351         0.127855      0.508480      0.626570
O       7.76958      9.76728      6.73374         0.379686     -0.143435     -0.323907
O       7.78076      9.69490     10.84449        -0.187660      0.158078      1.133904
O      11.76077      1.85442      2.50238        -0.055422      0.364023     -0.111429
O      11.69138      1.84425     14.97473         0.503179     -0.076796      0.151236
O      11.65834     13.68481      2.61202        -0.251912      0.263500     -0.577970
O      11.68756     13.79477     15.00470         0.208190     -0.274691      0.313141
O      11.70688      1.82914      6.61153        -0.258344      0.115198      0.067598
O      11.72660     13.64395      6.58019        -0.660718      0.213476      0.163751
O      11.64388      1.85526     10.86055         1.066491      0.078896     -0.486316
O      11.72419     13.78219     10.88806        -0.105221     -0.503533     -0.205717
O      11.73986      5.95881      2.55234        -0.296872     -0.342879     -0.266543
O      11.67768      5.89769     14.98725        -0.083509     -0.686360      0.112662
O      11.66964      5.79992      6.65628         0.483527      0.056935      0.223643
O      11.65436      5.86651     10.79361         0.563031     -0.523301     -0.408232
O      11.59980      9.59418      2.32119         0.410716      0.452311      0.822688
O      11.67130      9.82958     15.08023         0.014401     -0.418919      0.314246
O      11.60209      9.72333      6.58324         0.403275      0.108115     -0.002059
O      11.66826      9.69614     10.87956         0.519804     -0.231792     -0.291778
O       1.89803      3.81448      2.55552         0.338083     -0.034153     -0.009644
O       1.93246      3.85037     14.97522         0.087494     -0.544668      0.332401
O       1.74242     15.48332      2.64022         0.732118      1.159339     -0.565976
O       1.91628     15.59591     15.01146        -0.355320      0.415891     -0.322785
O      13.65300      3.93466      2.46642        -0.064693     -0.566487      0.121281
O      13.66306      3.83543     14.88909        -0.027387      0.219383      0.405866
O      13.70356      0.03278      2.57570         0.007593     -0.411317     -0.075386
O      13.72544      0.02830     15.11447        -0.156306     -0.840275     -0.051562
O       2.01465      3.87033      6.78733        -0.090950      0.923592     -0.671233
O       1.99875      0.01239      6.80354        -0.166766     -0.590112      0.010383
O      13.70277      3.83739      6.63161        -0.203820      0.843383      0.543334
O      13.85712     15.57374      6.66229        -0.742233     -0.742975      0.021126
O       2.05921      3.93072     10.67760        -0.762631      0.430007      0.168150
O       1.91151     15.54917     10.70710        -0.201841      0.732366      0.128563
O      13.57818      3.87305     10.78764        -0.189645     -0.956765     -0.283826
O      13.72183     15.57603     10.78628        -0.090395      0.428110     -0.465704
O       1.99062      7.74183      2.57056        -0.440784      1.039127      0.126016
O       1.81388      7.76995     14.98068         0.048494      1.483653      0.092206
O      13.67913      7.81141      2.51080         0.067171      0.017291      0.002881
O      13.60609      7.79185     14.76995         0.168194      0.104377      0.957002
O       1.97422      7.78378      6.51747         0.048268      0.971650      0.714727
O      13.67769      7.83280      6.66064        -0.072542     -0.199650     -0.084286
O       1.84092      7.76887     11.05962         0.597562     -0.064935     -1.585890
O      13.65501      7.73411     10.80293        -0.196032      0.336042     -0.296192
O       2.05236     11.71140      2.73682        -0.088350     -0.310819     -0.647256
O       2.07585     11.73024     14.94429         0.002890     -0.133176     -0.088890
O      13.58325     11.71710      2.55407        -0.214651     -0.551558     -0.193744
O      13.50120     11.77727     14.91562         0.146354     -0.256939      0.354753
O       1.99200     11.73219      6.70449         0.328257     -0.628248      0.077721
O      13.55166     11.64272      6.77568         0.237177      0.146468     -0.877324
O       1.95960     11.60853     10.80881         0.135661      0.247202      0.229483
O      13.55545     11.59817     10.82603         0.116801      1.036871     -0.117090
O       5.79100      3.83573      2.65573         0.031636      0.371887     -0.303916
O       5.68063      3.85601     14.92519        -0.018005     -0.223047      0.577164
O       5.91964      0.01628      2.58124        -0.295520     -1.139273      0.158598
O       5.94420     15.57449     15.06760        -0.298399      0.342267     -0.063009
O       5.80793      3.83766      6.66714        -0.048891      1.862663      0.175667
O       5.81626      0.00676      6.79757         0.095322     -0.757258      0.359189
O       5.76949      3.86810     10.94835         0.081686      0.159854      0.366739
O       5.72324      0.04273     10.69013         0.208048     -2.611649      0.191912
O       5.81158      7.65920      2.47887        -0.504034      1.602300      0.405773
O       5.74785      7.76586     14.96513         0.307045     -0.161620      0.134758
O       5.89080      7.76289      6.67920        -0.304739      0.503901      0.116482
O       5.96791      7.68896     10.92935        -0.408699      1.494001      0.194488
O       5.76154     11.67823      2.42258        -0.040776      0.073187      0.679661
O       5.75526     11.70683     14.90187         0.174820     -0.013246      0.139029
O       5.91193     11.65561      6.74286        -0.233732     -0.594840     -0.144827
O       5.74965     11.56431     10.84290         0.102439      1.089910      0.410685
O       9.85375      3.91018      2.47323        -0.153789      0.177782     -0.171543
O       9.75330      3.79971     15.11785        -0.074286      1.314206     -0.381041
O       9.68190      0.02885      2.61032         0.298964     -0.571629     -0.420602
O       9.65391     15.54071     14.94325         0.052038      0.230951      0.668729
O       9.75743      3.86691      6.58938         0.474286      0.261309      0.174665
O       9.66481     15.57398      6.47214         0.169749      0.044184      0.378123
O       9.79184      3.87665     10.77690        -0.062362     -0.111709      0.058860
O       9.64728     15.59484     10.84720        -0.146247     -0.245965     -0.204893
O       9.67871      7.66770      2.65036        -0.136283      2.000918     -0.292606
O       9.72463      7.78003     15.10069         0.174756     -0.201561     -0.668710
O       9.79946      7.83433      6.59577        -0.419987     -0.346077     -0.237725
O       9.71812      7.69825     11.00170        -0.180474     -0.027107      0.052780
O       9.61750     11.72859      2.35856         0.279698     -0.504454      0.610949
O       9.80850     11.70560     15.12339        -0.376859     -0.240730     -0.044481
O       9.71033     11.74171      6.73093        -0.183819     -1.129649     -0.201692
O       9.82341     11.65748     10.70412        -0.318385      0.604004      0.752576
