  # total energy = -7882.48843781 
CRSYTAL
PRIMVEC
    15.6080000000000005    0.0000000000000000    0.0000000000000000
     0.0000000000000000   15.6080000000000005    0.0000000000000000
     0.0000000000000000    0.0000000000000000   16.6239999999999988
PRESSURE
-0.91388 -1.02508 -0.231091 0.147299 -0.345552 -0.085488
PRIMCOORD
320 1
Pb       3.77435      3.82544      4.13554         0.198621     -0.044096     -0.052485
Pb       3.79055      3.78554     16.50814         0.374127      0.431818      0.370189
Pb       3.90799     15.46732      4.20227         0.260355      0.226361     -0.407282
Pb       4.00207      0.00217     16.58550         0.006209     -0.527946      0.106059
Pb       0.03114      3.94709      4.14066        -0.199468     -0.347191     -0.222756
Pb       0.02876      3.90334      0.00981        -0.432098     -0.130870     -0.443673
Pb       0.04307     15.53263      4.25977         0.044331      0.373031     -0.699274
Pb      15.60381     15.60422     16.59118        -0.027771      0.052918     -0.251726
Pb       4.04229      3.94628      8.21845        -0.246923     -0.402862      0.284279
Pb       3.88095     15.42824      8.25160         0.170272      0.572804      0.625546
Pb       0.02763      3.92677      8.29202        -0.516950     -0.178339     -0.355393
Pb      15.52607     15.54310      8.35627         0.073938      0.630242     -0.110341
Pb       3.90836      3.77651     12.39521        -0.527220      0.353558      0.227781
Pb       3.97694      0.13049     12.47613        -0.741236     -0.475284     -0.232467
Pb      15.57030      4.00579     12.50865         0.523549     -0.589620      0.130959
Pb       0.01924     15.46707     12.33727         0.199803      1.404857      1.121418
Pb       3.97143      7.72309      4.03735        -0.501635      0.206842      0.406875
Pb       3.89667      7.84184      0.02259         0.164998     -0.177699     -0.672828
Pb      15.45149      7.72696      4.12963        -0.027079      0.379338     -0.287731
Pb      15.59245      7.74720      0.00084         0.213820     -0.119106     -0.812850
Pb       3.79263      7.79856      8.31015         0.142876      0.155974     -0.365665
Pb       0.01928      7.75042      8.21144        -0.176899      0.375904      0.174043
Pb       3.83965      7.74935     12.38095         0.204533      0.195042      0.504812
Pb      15.60721      7.74510     12.36586        -0.124013      0.001010      0.545215
Pb       3.92578     11.62967      4.21138        -0.084526      0.227535     -0.895768
Pb       3.85909     11.71418      0.06413         0.050056     -0.070309     -0.194331
Pb       0.01869     11.61697      4.15894         0.095845     -0.117861     -0.481146
Pb      15.59634     11.56344     16.53819         0.090403      0.354384      0.117554
Pb       3.92409     11.64534      8.43032        -0.394103      0.515568     -0.186416
Pb       0.06968     11.74710      8.30950        -0.082829     -0.403127      0.195639
Pb       3.78384     11.66048     12.50562         0.269874      0.339895     -0.480711
Pb      15.44545     11.84464     12.51286         0.475090     -0.755568     -0.038947
Pb       7.85547      3.97167      4.09505         0.209289     -0.133416      0.143896
Pb       7.82276      3.80655      0.04324        -0.195004      0.099170     -0.568300
Pb       7.89442      0.04038      4.21505        -0.517108     -0.030508     -0.185163
Pb       7.79787     15.52783     16.53006        -0.366967      0.347927      0.164486
Pb       7.92283      3.83710      8.19262        -0.686234     -0.267947     -0.121748
Pb       7.70641      0.01932      8.19109         0.105521      0.031581     -0.043395
Pb       7.85194      3.91132     12.55850        -0.338323      0.398139     -0.568662
Pb       7.75813     15.58596     12.33882        -0.105750     -0.020413     -0.021860
Pb       7.91227      7.77688      4.17451        -0.174433     -0.233648     -0.175036
Pb       7.69692      7.57407      0.07566         0.082306      0.337125     -0.471805
Pb       7.72252      7.72944      8.27287        -0.124351      0.187896      0.013423
Pb       7.63619      7.96298     12.51631         0.236419     -0.544222     -0.500967
Pb       7.80393     11.62562      4.13551        -0.136231      0.139099     -0.290271
Pb       7.84508     11.70076      0.01811        -0.170336     -0.041511     -0.367336
Pb       7.93901     11.62240      8.42728        -0.753867      0.450382     -0.301090
Pb       7.76891     11.83991     12.46876        -0.257527     -0.325435     -0.300841
Pb      11.60778      3.84546      3.97933         0.489412      0.438393      0.560153
Pb      11.63032      3.74674      0.02144        -0.098594      0.572061     -0.379025
Pb      11.82358     15.59607      4.14577        -0.100473      0.330048     -0.165018
Pb      11.77110     15.59669     16.55297        -0.355766      0.070141     -0.087167
Pb      11.66220      3.78751      8.23833         0.670649      0.086057     -0.475917
Pb      11.82546     15.54398      8.37755        -0.256241      0.602427     -0.532720
Pb      11.58364      3.94015     12.32679         0.235475     -0.158003     -0.067013
Pb      11.56735      0.08622     12.51638         0.112409      0.188454     -0.581205
Pb      11.66267      8.07927      4.23802         0.370001     -0.849730      0.016537
Pb      11.80424      7.75049     16.59782        -0.515233     -0.029287     -0.329166
Pb      11.71018      7.66753      8.38708         0.040509      0.015299     -0.731332
Pb      11.79864      7.77806     12.45211        -0.490375     -0.579765     -0.830094
Pb      11.74550     11.90517      4.07672        -0.066707     -0.627044      0.133824
Pb      11.52322     11.64369      0.04187         0.479562      0.287364     -0.659883
Pb      11.55931     11.64289      8.30652         0.169901     -0.110681     -0.201529
Pb      11.68644     11.55858     12.53759        -0.336910      0.523206     -0.369840
Ti       1.88021      1.90556      2.18203         0.046240     -0.921356      0.570964
Ti       1.87829      1.81378     14.77148        -0.853045      1.015454     -1.914807
Ti       1.97402     13.57424      2.28188        -0.002877     -0.198639     -1.135527
Ti       1.94153     13.57193     14.73275         0.104528      0.520383     -0.237475
Ti      13.61166      1.95043      2.11186         0.403812      0.416365     -0.038974
Ti      13.54111      2.06906     14.64737         0.914621     -0.968930      0.275718
Ti      13.71496     13.61446      2.18919         0.170183      0.413014     -0.438171
Ti      13.60873     13.70767     14.70784        -0.228677     -0.336142     -0.019772
Ti       1.91213      1.95710      6.44530        -0.400460      0.424690     -0.971147
Ti       1.87281     13.75220      6.38881         0.983508     -1.032760      0.786401
Ti      13.67657      1.97502      6.22589        -0.675002      0.080403      1.168877
Ti      13.63900     13.62168      6.41304        -0.086687      0.648986      0.427767
Ti       1.88691      1.99171     10.47171        -0.196928     -0.408543      0.532088
Ti       1.86436     13.68457     10.60000         1.901148      0.133273     -0.559880
Ti      13.70299      1.91264     10.61413        -0.416074      0.722114     -0.415351
Ti      13.60978     13.65052     10.57731        -0.694323     -0.234253      0.153693
Ti       1.92707      5.77209      2.18192         0.131323      0.995445      1.120038
Ti       2.01085      5.79628     14.68816        -1.129157     -0.266291     -0.486208
Ti      13.63895      5.90761      2.07535        -0.850758     -0.530791      1.409426
Ti      13.61179      5.86349     14.60128         0.323076     -0.177291      0.699929
Ti       1.98428      5.89533      6.30979        -0.712604      0.111038     -0.311273
Ti      13.65734      5.89235      6.28804        -0.899707     -0.587897      0.650777
Ti       1.94030      5.79385     10.50511         0.164329     -0.594750      0.916089
Ti      13.69535      5.72330     10.44187        -1.047096      0.691088     -0.746850
Ti       1.91015      9.61820      2.20452        -0.293042      0.872957      0.390163
Ti       1.95794      9.71549     14.66126         0.141823     -0.593695      0.314926
Ti      13.55514      9.81074      2.12585         1.539310     -0.919780      0.892365
Ti      13.64256      9.77119     14.56029         0.017915      0.073915      1.263274
Ti       1.87819      9.81912      6.27303        -0.177368     -0.429359      0.200928
Ti      13.59519      9.80976      6.45620        -0.089334     -0.708886     -0.539237
Ti       1.83448      9.74065     10.61248         0.846245      0.353843      0.137837
Ti      13.59060      9.71837     10.44658         0.212248     -0.424213     -0.421078
Ti       5.83069      1.93966      2.27242        -0.520414     -0.523737     -1.030242
Ti       5.74788      2.00506     14.65840         1.210616     -0.211471     -0.208922
Ti       5.88242     13.62601      2.18023        -0.926353      0.596061     -0.325107
Ti       5.87204     13.66072     14.61536        -0.531908      0.072657      0.388685
Ti       5.75364      1.94966      6.34058         0.582615     -0.794438      1.474158
Ti       5.89290     13.60158      6.42819        -0.763277      1.091544     -0.260290
Ti       5.82756      1.98626     10.49987        -0.596966     -0.182549     -0.552545
Ti       5.78187     13.66193     10.54246        -0.471502     -0.134136     -0.350890
Ti       5.86589      5.75643      2.25954        -0.104514      0.828775     -1.320531
Ti       5.80650      5.88145     14.58963         0.045915      0.272651     -0.397252
Ti       5.89146      5.91555      6.40163        -0.571352      0.141527      0.415083
Ti       5.81360      5.83827     10.54945         1.229459     -0.404265     -0.402428
Ti       5.83054      9.67019      2.13300        -0.623840      0.394473      0.715184
Ti       5.89946      9.82874     14.69730        -0.812835     -1.044347      0.649891
Ti       5.67902      9.88190      6.39241         1.340196     -1.084757      1.138338
Ti       5.75093      9.71961     10.47371         0.136194      0.850052      0.746222
Ti       9.68492      1.90673      2.17184         0.564871      0.186804     -0.501059
Ti       9.63086      1.93988     14.62699         0.346733      0.397539      1.542303
Ti       9.68649     13.71962      2.14356         0.250661     -0.495267      0.014786
Ti       9.71782     13.64393     14.64671         0.445889     -0.187506      0.257849
Ti       9.78280      1.82586      6.25021        -0.138131      0.492232      1.425489
Ti       9.75241     13.64301      6.32326        -0.061997      0.220608      1.602817
Ti       9.63276      1.99081     10.37625         1.183567     -0.629208      0.156639
Ti       9.76812     13.65767     10.50007        -0.454077      0.381332      1.507617
Ti       9.83256      5.88830      2.19637        -0.043303      0.006000      0.303933
Ti       9.67383      5.92324     14.56033         0.503906     -0.947577      0.106299
Ti       9.71968      5.79241      6.37073         1.681073      0.181765     -0.810168
Ti       9.71544      5.80905     10.36033        -0.442752      1.297569      1.477643
Ti       9.73969      9.82572      2.25917        -0.051406     -0.557340     -0.128638
Ti       9.72686      9.64281     14.67767        -0.380429      0.888693     -0.182394
Ti       9.59667      9.70840      6.36729         0.935547     -0.289281      0.198745
Ti       9.64818      9.76689     10.59335         0.143719     -0.968090      0.956146
O       1.89295      1.91284      0.41091         0.446619     -0.021646     -0.348236
O       2.01410      1.88878     12.97153        -0.231301      0.085609      0.320938
O       1.95480     13.44993      0.47530        -0.059282      0.285314     -0.391932
O       1.97058     13.63372     12.93782        -0.509117      0.101949      0.397505
O      13.56622      1.89314      0.29141        -0.278828     -0.348901      1.053565
O      13.46654      2.04890     12.87996         0.182865     -0.104504     -0.495419
O      13.60833     13.61172      0.41855         0.204701      0.323441     -0.012117
O      13.65246     13.66235     12.91008        -0.069253     -0.180182     -0.406030
O       1.76357      1.90199      4.60093         0.366324      0.487834      0.270550
O       1.77310     13.73244      4.61753         0.513108     -0.074955     -0.411702
O      13.51434      1.99550      4.45997         0.581866     -0.061450     -0.315791
O      13.68026     13.68161      4.66076        -0.271341     -0.391087     -1.099346
O       1.82904      2.05905      8.72667        -0.154120     -0.114149     -1.534871
O       1.79383     13.83793      8.81851         0.126041     -0.921249     -0.554881
O      13.64209      1.83408      8.85051        -0.061466      0.151601     -0.502195
O      13.71538     13.79321      8.81529        -0.244664     -0.296872     -0.546030
O       1.99123      5.80151      0.47731        -0.102128     -0.129446     -1.864070
O       2.03244      5.52876     12.90265        -0.491310      0.957469      0.405119
O      13.50400      5.92949      0.33664         0.228410      0.335190     -0.768918
O      13.66573      5.86267     12.80355        -0.508419     -0.140889      0.608972
O       1.73641      5.97139      4.52115         0.541833     -0.520191      0.180798
O      13.69112      5.85423      4.49149         0.144784     -0.071293      0.543101
O       1.84873      5.89534      8.76989         0.152584      0.001130     -1.436075
O      13.72173      5.61948      8.61005        -0.252899      0.923626      1.184220
O       1.87887      9.83668      0.42199         0.145182     -0.288676     -0.196945
O       1.86704      9.63294     12.92203         0.508712      0.104861     -1.000027
O      13.46539      9.87511      0.37871         0.449721     -0.403698     -0.674135
O      13.46974      9.78427     12.78959         0.304417     -0.327080     -0.112246
O       1.88838      9.78774      4.47431        -0.094132     -0.141238      0.935485
O      13.66686      9.76495      4.64227        -0.257783      0.058522      0.479082
O       1.90046      9.72083      8.84927         0.146003     -0.039255     -0.437361
O      13.65845      9.70344      8.64047        -0.281311      0.192319      0.797855
O       5.85255      2.05053      0.41227        -0.105500     -0.511667      1.091351
O       5.73607      1.93765     12.83791        -0.045117      0.207122      0.730600
O       5.97001     13.84877      0.38162        -0.504679     -0.477149      0.784447
O       5.81486     13.69286     12.81706         0.217165     -0.131053      0.707181
O       5.70032      1.91074      4.63122         0.272853      0.360160     -2.081909
O       5.59928     13.62108      4.63917         0.819044     -0.377419     -0.168455
O       5.74925      1.98488      8.71091         0.241904     -0.089042      0.231087
O       5.73772     13.78693      8.71529         0.040391     -0.222388      0.676541
O       5.96708      5.93722      0.41295        -0.382095     -0.363912      0.947396
O       5.83999      5.81360     12.76143        -0.198057      0.239771      0.748690
O       5.82126      5.91138      4.66048         0.091223     -0.203677     -0.870943
O       5.98392      5.84876      8.71812        -0.728778     -0.034469     -0.054371
O       5.79499      9.56827      0.36888         0.213652      0.323234      0.609454
O       5.80872      9.72415     12.92672         0.344376      0.224991     -0.148721
O       5.67488      9.89338      4.63866         0.677991      0.145549     -0.809298
O       5.71060      9.86452      8.68212         0.026606     -0.368989      0.879898
O       9.68712      2.00771      0.33098        -0.049238      0.053280      0.776372
O       9.64951      2.05406     12.89051         0.226205     -0.403445     -1.192746
O       9.60503     13.52611      0.36409         0.302314      0.502190      0.314507
O       9.73953     13.78790     12.88387        -0.121196     -0.166210     -0.304587
O       9.74502      1.93291      4.49129        -0.143542     -0.436773     -0.670844
O       9.65512     13.74933      4.60435         0.155370     -0.519629     -1.468232
O       9.73542      2.00818      8.57919        -0.445225     -0.204712      1.147755
O       9.82339     13.60731      8.77719        -0.284556     -0.304941     -1.504800
O       9.71840      5.84587      0.42649        -0.117575     -0.037020     -0.258604
O       9.76880      5.90360     12.77057        -0.274582      0.012965      0.673872
O       9.87878      5.81478      4.57154        -0.923356     -0.023073     -0.170549
O       9.86307      5.81150      8.58151        -0.863347     -0.104201      0.168621
O       9.75412      9.88396      0.50563        -0.017261     -0.183119     -0.251058
O       9.63596      9.72525     12.86252         0.347685     -0.134788      0.300418
O       9.67623      9.71277      4.57408        -0.103538      0.263835     -0.328913
O       9.67374     10.09134      8.84907        -0.042911     -0.644875     -0.958918
O       3.89558      2.08973      2.59443        -0.133763     -0.245880     -0.438512
O       3.86420      1.86984     15.00175         0.479308      0.480521      0.230563
O       3.85468     13.63138      2.50551         0.282164      0.249868      0.246718
O       4.02131     13.59359     15.05909        -1.416629      0.290257     -0.057489
O      15.57397      1.96126      2.33465        -0.402996     -0.097318      0.519183
O      15.56335      1.88592     14.98758        -0.273640     -0.302757      0.160621
O      15.60773     13.60867      2.52533        -0.799243      0.331615      0.101767
O      15.57838     13.69619     15.01158        -0.025619     -0.280581     -0.074848
O       3.81113      1.94884      6.73874        -0.028132      0.343308     -0.330968
O       3.79249     13.60554      6.82025        -0.488070      0.008052     -0.571912
O      15.51085      2.01505      6.65246         0.685192     -0.157270     -0.077047
O       0.03321     13.54852      6.71776        -1.417454      0.686301      0.168799
O       3.72492      1.93381     10.75423         1.725409      0.226541      0.466971
O       3.81874     13.63838     10.94376         0.143142      0.122719     -0.537733
O      15.60714      2.04557     10.89579        -1.182792     -0.568532      0.243399
O      15.56493     13.65016     10.89444        -0.632843     -0.317820      0.173167
O       3.93230      5.77970      2.57677        -0.304058     -0.331073     -0.009262
O       3.85076      5.80472     14.96353         0.507256     -0.195059      0.311520
O      15.50326      5.97989      2.35850         0.997440     -0.374595      0.184230
O      15.57049      5.75492     15.03500        -0.019315      0.534372     -0.067016
O       3.91510      6.00881      6.69745        -0.321642     -0.689609      0.023295
O      15.59226      5.95670      6.66440        -0.039139     -0.419831     -0.359988
O       3.87913      5.82417     10.77478        -0.029989     -0.227884     -0.292797
O      15.50652      5.82219     10.94297         0.951340     -0.046225     -0.673835
O       3.92358      9.75012      2.53860        -0.232181     -0.173003     -0.327947
O       3.84926      9.73816     15.01830         0.145803      0.296133      0.094282
O      15.56942      9.66251      2.43565         0.209300      0.140804      0.099881
O      15.60647      9.76271     14.86523        -1.156016      0.046748      0.532161
O       3.83732      9.82687      6.65440        -0.895198      0.228102      0.279947
O      15.56631      9.72723      6.73443         0.127046      0.220270     -0.405732
O       3.84124      9.75927     10.97779         0.237588     -0.310523     -0.518505
O       0.02420      9.57911     10.93815        -1.463979      0.526641     -0.461407
O       7.83341      1.87128      2.51772        -1.224887      0.165006      0.312974
O       7.76801      2.02322     14.86234        -0.529889     -0.179453      0.390308
O       7.74006     13.58646      2.41317         0.401436      0.348233      0.916068
O       7.75601     13.70259     14.93093         0.456399     -0.529964     -0.008740
O       7.75920      1.84119      6.59292        -0.156222     -0.017262     -0.000064
O       7.77929     13.77533      6.68362         0.320407     -0.614958     -0.193253
O       7.69372      1.97072     10.77371         1.051053     -0.124426     -0.013427
O       7.70477     13.66965     10.80225         0.371383      0.299278      0.162184
O       7.78759      5.90746      2.54993         0.235113     -0.022045      0.382617
O       7.71460      5.97320     14.77680         0.564857     -0.080723      0.470254
O       7.77939      5.86942      6.56374        -0.073993     -0.152967      0.499841
O       7.79301      5.86063     10.72398        -0.078716      0.026072      0.160282
O       7.81677      9.67080      2.63522        -0.799120      0.534430     -0.412765
O       7.77044      9.76549     15.11196         0.416254     -0.284752     -0.501310
O       7.72152      9.80209      6.73385         0.466245      0.206121     -0.089930
O       7.66573      9.74669     10.88437         0.190933      0.396422     -0.396257
O      11.62550      1.90251      2.44093         0.593110      0.051735     -0.206835
O      11.61554      2.00329     14.94412        -0.164888     -0.105229      0.131699
O      11.64765     13.56400      2.44832         0.373080      0.320552      0.288850
O      11.64366     13.56957     15.00918         0.501469      0.606584     -0.015256
O      11.65156      1.85084      6.61437         0.505868      0.135174      0.046467
O      11.70638     13.72214      6.72283        -0.157239     -0.500477     -0.229598
O      11.56588      1.97589     10.79314        -0.143213     -0.036602      0.215828
O      11.65732     13.54948     10.82957         0.901512      0.353392      0.092841
O      11.66384      5.73448      2.53123         0.313579      0.430749     -0.574139
O      11.68941      5.90834     14.88571         0.047353      0.035361     -0.066437
O      11.64123      5.82692      6.69558         1.091015     -0.083664     -0.119262
O      11.62497      5.90549     10.76651         0.397206     -0.305187     -0.111610
O      11.72938      9.84095      2.57504        -1.454015      0.266113      0.209918
O      11.61578      9.63031     15.00092         0.689172      0.404829     -0.468285
O      11.54195      9.62943      6.67809         0.893543      0.617288      0.290905
O      11.66720      9.75086     10.73056         0.031781      0.450721      0.344036
O       1.87939      3.90395      2.48423        -0.097598     -0.413790      0.607887
O       1.80104      3.82363     15.08802         1.024053      0.292651      0.070087
O       1.99381     15.59525      2.46384        -0.409597      0.261826      0.273776
O       1.95021     15.55435     15.03514         0.116810     -0.760660      0.509520
O      13.58292      3.92794      2.22711         0.136626     -0.733727      0.623659
O      13.70272      3.87628     15.08410        -0.640632      0.805228     -0.493565
O      13.60100     15.60713      2.63442         0.233135     -0.505552     -0.841126
O      13.51836      0.02269     14.92467         0.025602     -0.568638      0.210754
O       1.91021      4.00124      6.49491         0.164221     -0.180986      0.465553
O       1.82018      0.09560      6.65477         0.035467     -1.367583      0.123918
O      13.62314      3.81340      6.70145        -0.135016      0.710826     -0.615284
O      13.65942     15.59160      6.63667         0.218063     -0.062130      0.129652
O       1.80013      3.89482     10.77477         0.392030      0.338749      0.222819
O       1.83774     15.59047     10.75426        -0.254305      0.347818      0.687650
O      13.56666      3.88534     10.77018        -0.042996      0.050377      0.394733
O      13.65994      0.02519     10.84069        -0.292700     -1.120750      0.570951
O       2.05942      7.71550      2.40152        -0.244313      0.844715      0.150295
O       1.92671      7.73138     15.02940        -0.180736      0.096012      0.026490
O      13.56447      7.86357      2.50918        -0.351907     -0.342313     -0.279298
O      13.75131      7.81718     14.95541        -0.554296      0.001571     -0.126574
O       1.93758      7.85862      6.66891         0.059508      0.185494      0.182821
O      13.55943      7.78387      6.66723         0.212508     -0.320474     -0.050478
O       1.95690      7.64078     10.94420        -0.303716      1.211527     -0.066301
O      13.58502      7.73317     10.69421         0.038377      0.669465      0.307519
O       1.93207     11.65537      2.59101        -0.117739      0.072085      0.167031
O       1.89997     11.67044     14.87862         0.141114      0.413879      0.447637
O      13.68405     11.66528      2.51439        -0.101032      1.167401      0.429390
O      13.58662     11.67759     14.86078         0.183136     -0.275986      0.031395
O       1.82046     11.71761      6.75993         0.524887     -0.506479     -0.495292
O      13.57875     11.71629      6.70371         0.002213     -0.160265      0.160523
O       1.89328     11.70287     10.88660        -0.296992     -0.505977      0.009446
O      13.72373     11.64847     10.75851        -0.109107      0.442361      0.287227
O       5.94454      3.90909      2.47659         0.061926     -0.451314      0.607143
O       5.82321      3.94814     14.97008        -0.169856     -0.624288     -0.160652
O       5.76584      0.02565      2.63564         0.145721      0.034373     -0.316518
O       5.89449      0.05511     14.99419        -0.334464     -0.148953     -0.284705
O       5.85793      3.82394      6.68924        -0.248923      1.387079     -0.135590
O       5.72121     15.53885      6.60609         0.091289      0.851119      0.438629
O       5.79041      3.87371     10.90362        -0.051174      0.136382     -0.538708
O       5.74947      0.04760     10.90493         0.240668     -0.100470     -0.380480
O       5.73761      7.78196      2.56568         0.793387      0.348427     -0.231338
O       5.72606      7.79599     14.93238         0.248590     -0.281247      0.074881
O       5.84963      7.93941      6.73734        -0.062070     -1.041268     -0.083798
O       5.79987      7.79059     10.79867        -0.205535      0.319119     -0.088710
O       5.67502     11.74332      2.34789         0.934565     -0.871637      0.302233
O       5.86599     11.68261     15.10844         0.065888      0.615911     -0.413370
O       5.84755     11.80002      6.82143        -0.267536     -1.340422     -0.212117
O       5.76686     11.73510     10.80692        -0.035855     -0.351697     -0.047017
O       9.69564      3.82793      2.54382        -0.240226      0.555128     -0.315632
O       9.59373      3.99309     14.93181         0.356415     -0.232008     -0.058086
O       9.72964     15.57888      2.49833        -0.138178     -0.173457     -0.096744
O       9.69248     15.55479     15.04111         0.407465      0.903934     -0.465731
O       9.68712      3.82938      6.59752        -0.069338      0.142919     -0.066253
O       9.72251     15.55957      6.64989        -0.059855      0.021678      0.028004
O       9.62720      3.94505     10.72774         0.223813     -0.764866      0.032699
O       9.70475      0.02246     10.75794        -0.159206      0.254585      0.153573
O       9.82239      7.78543      2.50295        -0.166642      0.751902      0.207382
O       9.70056      7.80165     15.06351        -0.092486     -0.245557     -0.270071
O       9.67321      7.73262      6.61602        -0.451077      1.065747      0.368604
O       9.65612      7.89076     10.65901         0.150731     -0.222541     -0.042680
O       9.65616     11.77525      2.50173         0.108132     -0.920907      0.717001
O       9.78080     11.69034     14.93960        -0.542632     -0.306434     -0.011133
O       9.73698     11.68258      6.66506        -0.181163      0.505224     -0.155360
O       9.56763     11.80003     11.00164         0.558550     -0.730584     -0.377771
