  # total energy = -7883.46214597 
CRSYTAL
PRIMVEC
    15.6080000000000005    0.0000000000000000    0.0000000000000000
     0.0000000000000000   15.6080000000000005    0.0000000000000000
     0.0000000000000000    0.0000000000000000   16.6239999999999988
PRESSURE
-0.058946 -0.260356 0.633161 0.184392 -0.060501 -0.061498
PRIMCOORD
320 1
Pb       3.82736      3.81065      4.10748         0.053241      0.200283      0.453141
Pb       3.85682      3.84739     16.52761         0.333249     -0.228367      0.712587
Pb       3.91243     15.50489      4.09894        -0.310961     -0.057589      0.680120
Pb       3.97539     15.58390     16.53489        -0.339142      0.328255      0.642257
Pb       0.02557      3.93655      4.10562         0.199576     -0.054988      0.218354
Pb       0.03571      3.86636     16.61141        -0.471983      0.000068      0.271899
Pb       0.01782     15.51583      4.16572         0.196452     -0.055928      0.061767
Pb      15.60526      0.00330     16.54796        -0.284834     -0.392666      0.669872
Pb       3.99503      3.88529      8.18616        -0.725589     -0.062033      0.910985
Pb       3.87230     15.42031      8.17475         0.098031      0.977979      0.760915
Pb      15.57900      3.91185      8.27571        -0.274257     -0.122945      0.126223
Pb      15.50495     15.51530      8.31415         0.139793      0.742160     -0.143809
Pb       3.85852      3.79424     12.44014        -0.187064      0.158614     -0.647219
Pb       3.94907      0.07900     12.53078        -0.082231     -0.065052     -0.581706
Pb       0.00696      4.04239     12.54950         0.054864     -0.509212     -0.834016
Pb       0.05952     15.53259     12.44936        -0.064796      0.553884     -0.169287
Pb       3.94936      7.77427      3.97616        -0.377227     -0.362485      0.925413
Pb       3.91041      7.81849     16.58119        -0.252712     -0.007006      0.005564
Pb      15.44187      7.76269      4.10042         0.280459     -0.019613     -0.052333
Pb      15.59503      7.71794     16.56581        -0.033455      0.889021      0.577560
Pb       3.75510      7.77474      8.30121         0.622677      0.165661      0.268518
Pb      15.52943      7.71061      8.32960        -0.065583     -0.022228      0.069300
Pb       3.88979      7.73729     12.35535        -0.191679      0.119131      0.108589
Pb      15.55861      7.76197     12.38759         0.273771     -0.318777      0.284620
Pb       3.88776     11.67089      4.10873         0.267734      0.155885      0.874434
Pb       3.83539     11.74260      0.05492         0.237571     -0.348491     -0.813163
Pb      15.57869     11.61879      4.09404         0.139544     -0.066441      0.025019
Pb      15.58382     11.60115     16.53954         0.125246      0.044437     -0.313415
Pb       3.90177     11.73664      8.41340         0.228972     -0.518398     -0.525774
Pb       0.07500     11.73664      8.26795        -0.271387     -0.065227      0.311205
Pb       3.80123     11.64718     12.43713         0.142927     -0.068923      0.305638
Pb      15.52351     11.81206     12.51532         0.475378      0.151074     -0.207836
Pb       7.81625      3.90214      4.08170         0.270120     -0.188854      0.858225
Pb       7.82681      3.85859     16.59021        -0.055208     -0.010959      0.473702
Pb       7.84234      0.01480      4.19548        -0.002631     -0.051447     -0.170873
Pb       7.77254     15.58847     16.52421         0.679719      0.385019      0.404081
Pb       7.88357      3.79525      8.24361        -0.341965      0.364280      0.329388
Pb       7.73278      0.02322      8.13772         0.276371      0.191797      1.036994
Pb       7.86774      3.85023     12.50702        -0.532490     -0.199607     -0.567813
Pb       7.76068     15.57767     12.32380        -0.584764      0.002550      0.360345
Pb       7.92964      7.77788      4.15003        -0.753325      0.138431      0.775061
Pb       7.64648      7.60763      0.03113         0.368600      0.378142     -0.152835
Pb       7.75420      7.72658      8.22010         0.083659      0.114968      0.251610
Pb       7.64362      7.90690     12.45112         0.070164     -0.127636      0.411446
Pb       7.81079     11.65313      4.10128        -0.388054      0.368728      0.986576
Pb       7.79074     11.76580     16.58343        -0.173268     -0.232382      0.197775
Pb       7.95159     11.67191      8.38115        -0.995640      0.034430     -0.084869
Pb       7.78630     11.81527     12.43346        -0.122301     -0.453557      0.104040
Pb      11.68293      3.80337      4.05664         0.212724      0.480543      0.278573
Pb      11.64779      3.83961      0.08293        -0.138877     -0.108311     -0.408589
Pb      11.73771     15.53169      4.11090        -0.087301      0.011528     -0.210457
Pb      11.73333     15.59469     16.51469        -0.551190      0.272994      0.390151
Pb      11.68245      3.88828      8.30403         0.232913     -0.112756     -0.111913
Pb      11.81254      0.01236      8.36825        -0.261472      0.290672     -0.117689
Pb      11.64297      3.91582     12.32835         0.086598     -0.098236      0.707783
Pb      11.49074      0.09289     12.43975         0.946507     -0.198659      0.863498
Pb      11.69140      8.02177      4.25365         0.319317      0.037087     -0.494760
Pb      11.78603      7.76548     16.58910        -0.764696      0.179188      0.180170
Pb      11.71073      7.66392      8.38561        -0.053097      0.393671     -0.045434
Pb      11.72097      7.87423     12.44173        -0.484150     -0.203638      0.511879
Pb      11.82390     11.76670      4.08795        -0.439605     -0.505641      0.359921
Pb      11.51926     11.61707     16.60357         0.121826      0.297380      0.333042
Pb      11.61194     11.73143      8.39466         0.211247     -0.050902     -0.127729
Pb      11.67567     11.60858     12.50224        -0.734969      0.385806     -0.273651
Ti       1.91817      1.76877      2.20931         0.077987      1.197307     -0.239250
Ti       1.85025      1.91621     14.71272         1.436554     -0.828049      0.101101
Ti       1.96245     13.53335      2.16654        -0.287842      0.775579      1.613510
Ti       1.92665     13.66081     14.80545         0.229741     -0.466473     -1.650851
Ti      13.70795      1.94499      2.17283        -0.200056     -0.389039     -0.660102
Ti      13.66057      1.97098     14.73182        -1.051684      0.254380     -0.466953
Ti      13.66125     13.66944      2.14365         0.056485     -0.261498     -0.627730
Ti      13.61864     13.67477     14.65317        -0.020819      0.441092      0.202380
Ti       1.91834      2.02580      6.35852         0.166110     -0.545094      0.431507
Ti       1.94264     13.65474      6.43176         0.235420      0.176870     -1.269959
Ti      13.63815      1.96122      6.32868         0.373568      0.346527      0.856845
Ti      13.58479     13.63543      6.41277         0.153553      0.022817      0.456481
Ti       1.83006      1.98616     10.35948         0.227427     -0.040099      3.256120
Ti       1.95041     13.68606     10.56149        -0.347913      0.272691      0.097773
Ti      13.64868      1.91686     10.63166         1.037002      0.252645     -1.099691
Ti      13.57596     13.69017     10.57041         0.096126      0.370442      0.331340
Ti       1.96334      5.77989      2.17132        -0.266876      0.043363      1.088166
Ti       1.82544      5.82524     14.84488         1.600440      0.544482     -1.242164
Ti      13.64188      5.78368      2.15545         0.505747      0.998735      1.269579
Ti      13.54782      5.89173     14.75656         0.146991     -0.724466     -1.119659
Ti       1.87811      5.90697      6.40259         0.228495     -0.567471     -0.203907
Ti      13.55899      5.88590      6.40183         0.488047     -0.852735     -0.743372
Ti       1.96641      5.87265     10.45458        -0.458643     -0.931552      0.798351
Ti      13.58228      5.79936     10.62597         0.818732      0.070599     -1.077547
Ti       1.99219      9.69675      2.14264        -1.252257     -0.664712     -0.208474
Ti       1.93682      9.71517     14.63716        -0.031849      0.208028      0.438337
Ti      13.68221      9.77417      2.08900        -0.503877     -0.732206      1.195400
Ti      13.57283      9.86855     14.60662         0.695247     -0.759655      0.356948
Ti       1.88062      9.74942      6.42328         0.945515     -0.129281     -0.773772
Ti      13.58326      9.78372      6.45342         0.497371      0.180610     -0.134353
Ti       1.83028      9.77947     10.58312         1.004280     -0.085223      0.631183
Ti      13.60810      9.78662     10.55276        -0.361607      0.034906     -0.676752
Ti       5.78746      1.87125      2.28767         0.885607      0.600303     -0.885864
Ti       5.81994      1.98395     14.73998         0.268393     -0.015897     -0.442061
Ti       5.86196     13.66700      2.19047         0.525250     -0.453314     -0.033722
Ti       5.84655     13.70539     14.74827         0.081951     -1.505842     -0.891455
Ti       5.85622      1.99443      6.38861        -0.516336     -0.087609      1.353040
Ti       5.86464     13.65067      6.40728         0.081884     -1.375411      0.046264
Ti       5.78402      1.87217     10.47381         0.276052      0.006402      0.204379
Ti       5.74004     13.55524     10.51365         0.468941      1.306164     -1.125227
Ti       5.88234      5.73021      2.35097        -0.199158      0.376525      1.229542
Ti       5.70630      5.82912     14.60763         0.914565     -0.097393     -0.938168
Ti       5.77572      5.84173      6.40715         0.583400     -0.622312     -0.896170
Ti       5.93219      5.73636     10.53583        -1.110639     -0.031356      1.336083
Ti       5.80210      9.74527      2.23662         0.824665     -0.239314     -1.086778
Ti       5.82400      9.76422     14.78072         0.165350      0.478676     -1.206979
Ti       5.83172      9.72068      6.52527        -0.284139      0.968801      0.049487
Ti       5.81497      9.72280     10.54339        -0.270888     -0.263244     -0.898877
Ti       9.77203      1.93865      2.22561        -0.875357     -0.248593     -0.781409
Ti       9.73798      2.04786     14.67620         0.240059     -1.215733      0.504853
Ti       9.74039     13.62917      2.24499        -0.095474      0.464246     -0.915033
Ti       9.74272     13.62081     14.66662        -0.681749      0.842153     -0.431097
Ti       9.79030      2.00027      6.31116        -0.648752     -0.503621      1.030699
Ti       9.77985     13.71241      6.43866        -0.929330     -0.188937     -0.216103
Ti       9.70239      1.90663     10.51677        -0.893324      0.758796     -0.981543
Ti       9.71310     13.68379     10.57742        -0.141253     -0.965386     -0.097586
Ti       9.82159      5.88464      2.29625        -0.385020     -0.249919     -0.338861
Ti       9.66723      5.86663     14.61584         0.555373      0.161641      0.287771
Ti       9.72450      5.84600      6.34584        -0.618401     -0.334592     -0.130529
Ti       9.67518      5.87346     10.53313        -0.097529     -0.656930      0.137997
Ti       9.66075      9.79587      2.30370         1.294618     -0.527207     -1.800829
Ti       9.68030      9.70074     14.75272        -0.579331     -0.337743     -1.250644
Ti       9.74816      9.77503      6.46626        -0.773841     -0.171252     -0.225190
Ti       9.69576      9.68368     10.56003        -0.281484      0.629115      0.310134
O       2.00104      1.82020      0.42369        -0.495751      0.474063      0.455696
O       1.92955      1.81637     12.95980         0.094908      0.141873      0.326999
O       2.03131     13.49015      0.42829        -0.144911      0.062616     -0.532694
O       1.89554     13.68645     12.97076         0.092068      0.068664      0.561089
O      13.58314      1.85932      0.36087         0.752396      0.579799      1.059955
O      13.63639      1.87416     12.97722        -0.089611      0.186478     -0.266693
O      13.55635     13.64408      0.36837         0.198614     -0.241346      0.907146
O      13.75978     13.69669     12.88410        -0.058155     -0.107369      0.128583
O       1.97421      2.00102      4.59149        -0.279622     -0.588977     -0.212918
O       2.04730     13.75413      4.63190        -0.536191     -0.405249      0.197681
O      13.67042      2.02689      4.56964        -0.457483     -0.402647     -0.598348
O      13.62259     13.65813      4.63787        -0.026561      0.048640     -0.496213
O       1.82909      2.08871      8.68021         0.060091     -0.238488     -2.054367
O       1.92673     13.43700      8.77057         0.028467      0.566082     -0.270707
O      13.66675      1.97723      8.79219        -0.315780     -0.172148      0.534795
O      13.54617     13.77620      8.72710        -0.091463     -0.260347      1.018732
O       1.86740      5.76682      0.41889         0.075609     -0.240804     -0.897148
O       1.80704      5.85278     13.07813         0.249791     -0.180258     -0.428125
O      13.80596      5.95143      0.42303        -0.336983     -0.324488     -1.301462
O      13.55666      5.79461     12.95151         0.292000      0.121640     -0.063367
O       1.77953      5.98505      4.62874         0.392027     -0.094491      0.206313
O      13.57335      5.77644      4.59621         0.018494      0.376254      0.256272
O       1.92143      5.86846      8.70682        -0.352326     -0.014558     -0.689624
O      13.58921      5.91703      8.80021        -0.100370     -0.113852      0.217591
O       1.92807      9.77728      0.34544         0.146531      0.208586      0.917567
O       2.06723      9.66911     12.87135        -0.379361      0.182327     -0.248467
O      13.75053      9.73545      0.35455        -0.360423      0.212029     -1.180163
O      13.34973      9.86712     12.82644         0.724580     -0.207328      0.201044
O       1.91388      9.62311      4.61933        -0.065528      0.226946      0.642728
O      13.67677      9.84174      4.64086        -0.097627     -0.297811      0.324288
O       1.94356      9.82516      8.85666        -0.581734     -0.101407     -0.999330
O      13.49762      9.75754      8.75047         0.365690     -0.227520      0.984125
O       5.85799      1.94745      0.47310         0.022771      0.088700      0.656913
O       5.83898      1.84429     12.98623        -0.202158     -0.170889     -0.585771
O       5.80537     13.72182      0.39308         0.311488     -0.370463      0.689217
O       5.91972     13.66903     12.96837        -0.193346     -0.018682     -0.469243
O       5.85450      1.94270      4.67934        -0.162146     -0.434202     -1.978420
O       5.97056     13.64292      4.62017        -0.425341      0.094910     -0.008138
O       5.83152      1.93952      8.71758        -0.074608      0.088925      0.111429
O       5.49955     13.53091      8.70243         0.822111      0.468343      0.735529
O       6.02777      5.62092      0.65281        -0.167952      0.348506     -2.072945
O       5.68779      5.87871     12.81696        -0.028743     -0.150673      0.770336
O       5.71596      5.69080      4.63450         0.312498      0.682792     -0.291617
O       5.84511      5.74400      8.80717         0.262200      0.222088     -0.660719
O       5.84015      9.66122      0.43414        -0.218355      0.003630      0.574431
O       5.83427      9.82412     12.98554        -0.273470     -0.390496     -0.114069
O       5.89403      9.81612      4.76744        -0.377770     -0.453151     -1.547266
O       5.93294      9.63728      8.74877        -0.314791      0.263991      0.824713
O       9.67344      1.98048      0.44355         0.144759     -0.167567      0.384499
O       9.72913      2.02851     12.88732        -0.018388      0.185572     -0.266127
O       9.75025     13.60943      0.41259         0.091094     -0.196852      0.910447
O       9.54645     13.74247     12.87114         0.392306     -0.514505      0.384724
O       9.77669      1.96628      4.55547         0.401196      0.191011     -1.103059
O       9.83362     13.47474      4.69852        -0.281908      0.715722     -0.862844
O       9.49835      1.84280      8.72760         1.071545      0.336588      0.751102
O       9.94477     13.65871      8.83068        -0.335851      0.220067     -0.643883
O       9.72065      6.06509      0.54818        -0.232303     -0.028402     -0.486147
O       9.82354      5.80750     12.84498        -0.136075     -0.259795      0.632251
O       9.77751      5.60430      4.57318         0.755656      0.781445     -0.340373
O       9.54053      5.82105      8.76747         0.624346      0.189651     -0.059348
O       9.77909      9.74100      0.44015        -0.291873      0.096183      0.744108
O       9.81150      9.85967     12.90890        -0.269659     -0.401388      1.004279
O       9.70493      9.76602      4.67556         0.237106      0.156946     -0.168136
O       9.65000      9.68952      8.77587         0.322428      0.172665      0.056676
O       3.83982      1.92440      2.52391         0.953140     -0.094667      0.168500
O       3.92818      1.89509     15.04938        -0.292180     -0.168249     -0.137811
O       3.96578     13.63592      2.60966        -0.329874     -0.336064     -0.489963
O       3.87324     13.66111     14.99027         0.674029     -0.410413      0.282734
O      15.60662      1.87136      2.58105        -0.019002     -0.225673     -0.372358
O       0.00033      1.78687     15.03091        -0.157334      0.529568      0.000871
O       0.03973     13.62498      2.59710        -0.173449     -0.105652     -0.484963
O       0.01449     13.68191     15.09521        -0.502255     -0.079046     -0.181769
O       3.89107      2.00434      6.65222        -0.876971     -0.258553      0.127505
O       3.89240     13.67767      6.64418        -0.636839     -0.126365     -0.104165
O      15.58051      1.88364      6.65084        -0.605690      0.324755     -0.038555
O      15.48630     13.69669      6.73208         0.529887     -0.617073     -0.119580
O       3.87193      1.91558     10.91344        -0.178413     -0.070064     -0.289154
O       3.85644     13.65801     10.85940        -0.606744     -0.014657      0.508093
O      15.56028      1.95269     10.90800         0.097843      0.306595     -0.131592
O       0.07825     13.57882     10.95337        -1.423891      0.382418     -0.517597
O       3.84214      5.65370      2.50962         0.918967      0.478618      0.056038
O       3.91504      5.80206     15.13693        -0.873790      0.264033     -0.015808
O       0.05552      5.84213      2.55769        -0.655989      0.557407     -0.112724
O       0.01870      5.92524     15.11854        -1.318945     -0.891658     -0.340666
O       3.84590      5.82879      6.65454        -0.674572      0.169076      0.287467
O      15.48528      5.81624      6.77106         0.261318      0.303857     -0.139393
O       3.78136      5.71083     10.73391         1.451167      0.492628      0.675430
O       0.00937      5.92478     10.77350        -0.993999     -0.296902      0.731483
O       3.86109      9.78758      2.54978         1.217871      0.106718     -0.061171
O       3.87403      9.79812     14.99399         0.224773     -0.395174      0.428236
O       0.02023      9.69926      2.47768         0.302838      0.069333      0.158313
O      15.57117      9.83143     14.80676        -0.537785     -0.227823      0.264169
O       3.86236      9.68695      6.86296        -0.516838     -0.294580     -0.457256
O      15.56516      9.81188      6.82544        -0.081258     -0.105974     -0.312262
O       3.89450      9.69598     10.77449        -0.309952      0.398433      0.426885
O      15.49135      9.69520     10.86080         0.138107      0.144304      0.052444
O       7.80380      1.81791      2.67323        -0.040227      0.216324     -0.576295
O       7.77463      2.01650     15.06268         0.120219      0.021243     -0.274060
O       7.86532     13.69226      2.61262        -0.425063     -0.235795     -0.446357
O       7.83152     13.66743     15.05910        -0.099381      0.252381      0.174963
O       7.77368      2.01080      6.65536        -0.060697     -0.035319     -0.168658
O       7.72081     13.58193      6.83713         0.585691      0.314912     -0.134642
O       7.75242      1.89953     10.85519         0.380763     -0.060510      0.213981
O       7.73221     13.73428     10.62847         0.594094     -0.518731      0.552391
O       7.87622      5.92803      2.72940        -0.545646     -0.307579     -0.528460
O       7.77490      5.80156     14.90596         0.077051      0.102563      0.208199
O       7.84756      5.78140      6.59496        -0.942285      0.019240      0.166544
O       7.77680      5.85302     11.04817        -0.147969     -0.229257     -0.608073
O       7.76346      9.76177      2.53094         0.025504     -0.581196      0.159546
O       7.74443      9.54744     14.92873         0.900204      0.371659      0.550843
O       7.77719      9.76220      6.82553         0.427842     -0.094901     -0.264665
O       7.71931      9.79964     10.96463         0.838197     -0.145520     -0.197473
O      11.73004      1.99850      2.40222         0.044867      0.014898      0.591692
O      11.69173      2.06196     15.08724         0.047221     -0.200714     -0.331205
O      11.71963     13.58802      2.59524         0.353776     -0.020989     -0.262025
O      11.61897     13.68099     14.88215         0.533451     -0.434120      0.051423
O      11.61737      1.91456      6.67722         0.813158      0.069428      0.155388
O      11.60748     13.67595      6.69870         1.083278      0.379858      0.276846
O      11.70658      1.93885     10.82675        -0.945098      0.018098     -0.057685
O      11.70293     13.77737     11.03852         0.416788     -0.435460     -0.710968
O      11.76849      5.71707      2.31472        -0.352712     -0.019816      0.675962
O      11.70738      5.82068     15.11814        -0.014478      0.020356     -0.026183
O      11.64642      5.90728      6.79640         0.086948     -0.091675      0.037730
O      11.67765      5.77264     10.74897        -0.639642      0.174144      0.164513
O      11.68882      9.85364      2.48460         0.558110     -0.240492      0.271975
O      11.67053      9.87210     15.04087         0.267546     -0.257558     -0.069970
O      11.68290      9.69547      6.74624        -0.602192     -0.039516     -0.182461
O      11.59610      9.77524     10.87506         0.616894     -0.194983     -0.356666
O       1.89142      3.85697      2.62722        -0.119944     -0.055243     -0.710886
O       1.98896      3.79367     15.05369        -0.687886      0.643243     -0.068253
O       1.95146     15.51989      2.53134         0.097715     -0.148721     -0.021562
O       2.03546     15.55324     15.18510        -0.569951      0.142542     -0.628088
O      13.84553      3.87828      2.44449        -0.574726     -0.243056     -0.249567
O      13.75647      3.90085     14.96300         0.283934      0.116707      0.570634
O      13.65533     15.57240      2.38082        -0.112770     -0.062857      0.823419
O      13.58557     15.57661     15.09203         0.300349     -0.004449     -0.496245
O       1.82978      3.92097      6.71487         0.153829      0.062377     -0.459925
O       1.85384     15.53136      6.72609         0.185021      0.658433      0.167264
O      13.48403      3.89673      6.71283         0.251258     -0.122770      0.088330
O      13.55973      0.04150      6.72236        -0.054546     -0.358878     -0.259113
O       1.87308      3.86965     10.90143        -0.164732      0.272680      0.033835
O       1.76163      0.05407     10.67801         0.669390     -1.018618      0.136028
O      13.67548      3.88907     10.98853        -0.127267      0.381846     -0.322752
O      13.71942      0.02264     10.86848        -0.217042     -0.808227     -0.136168
O       2.17233      7.79046      2.31215        -0.547663     -0.018968      0.296958
O       1.87150      7.78296     15.10015         0.697998      0.148761     -0.100414
O      13.57756      7.79731      2.43364         0.192190      0.136974      0.582356
O      13.58923      7.83664     14.77726         0.031189      0.306043      0.783883
O       1.83454      7.78838      6.82883        -0.063522      0.353879     -0.105615
O      13.62726      7.79997      6.63015        -0.029901      0.348227      0.302247
O       1.92212      7.77142     10.88432        -0.082886      0.525686     -0.204514
O      13.53859      7.75357     10.97941         0.218805      0.866581     -0.468110
O       2.03115     11.68258      2.60483        -0.392751     -0.199209     -0.339172
O       1.93258     11.63302     15.01780         0.077799      0.776668     -0.029987
O      13.76451     11.65523      2.48690        -0.194369      0.743925     -0.003772
O      13.66468     11.78552     14.93094        -0.177394     -0.841703      0.078353
O       1.96772     11.68836      6.61996        -0.520131     -0.125205      0.215366
O      13.48492     11.72660      6.77817         0.380076      0.065654     -0.205406
O       1.88289     11.71638     10.94605         0.217870     -0.790779      0.050640
O      13.63689     11.77618     10.87230        -0.265838     -0.758720     -0.311346
O       5.93938      3.82648      2.73569        -0.478274     -0.585881     -0.871165
O       5.74081      3.90971     14.81229         0.306190     -0.328524      0.751674
O       5.84450     15.54738      2.53118        -0.026239      0.589482      0.194539
O       5.90848     15.53657     15.05207        -0.270688      1.408821     -0.063004
O       5.75875      3.92605      6.75634         0.671596     -0.556748     -0.185317
O       5.79246      0.01939      6.81424         0.159000     -0.431319     -0.829655
O       5.85752      3.80735     10.86848        -0.016795      0.552435      0.243887
O       5.80907     15.50725     10.78062        -0.263072      1.007668      0.380025
O       5.83904      7.71219      2.52135        -0.258451      0.862885      0.100935
O       5.80434      7.71919     15.04613        -0.166851      0.111262      0.148599
O       5.82211      7.66061      6.76733         0.087974      1.334481     -0.048122
O       5.80408      7.78091     10.91604         0.210924     -0.140504     -0.277513
O       5.93572     11.67619      2.36582        -0.458294      0.111295      0.570885
O       5.99427     11.71341     15.03589        -0.541594     -0.350674      0.321401
O       5.75150     11.66165      6.74570         0.047459      0.260770      0.129740
O       5.79004     11.72106     10.81957         0.005289     -0.816398      0.269823
O       9.66065      3.91283      2.33882         0.333047     -0.357146      0.606196
O       9.79294      3.93890     15.16014        -0.353389      0.500914     -0.480896
O       9.83001     15.54082      2.50069         0.171706      0.213027      0.531230
O       9.80537      0.13864     14.92451        -0.380675     -0.932197      0.201503
O       9.74862      3.90570      6.72923         0.434532     -0.398492      0.139171
O       9.56855      0.06716      6.57222         0.390190     -1.041923      0.035068
O       9.65016      3.88094     10.78805         0.232305     -0.326366      0.173586
O       9.76050     15.58677     10.90185        -0.220248      0.863426     -0.223946
O       9.83634      7.86597      2.77412         0.001872     -0.446377     -0.431861
O       9.80571      7.77201     14.90240         0.159988     -0.012748      0.281651
O       9.61086      7.76819      6.60207         0.685512      0.399316      0.086693
O       9.64551      7.75423     10.80426         0.345065      0.812591      0.253310
O       9.71167     11.64155      2.67139         0.182271      0.866117     -0.633940
O       9.58438     11.67672     15.02824         0.633673      0.271250     -0.211144
O       9.68623     11.74015      6.80183         0.461070     -0.756427      0.203732
O       9.76720     11.72682     10.82636        -0.289359      0.053578      0.026339
