  # total energy = -7881.29136628 
CRSYTAL
PRIMVEC
    15.6080000000000005    0.0000000000000000    0.0000000000000000
     0.0000000000000000   15.6080000000000005    0.0000000000000000
     0.0000000000000000    0.0000000000000000   16.6239999999999988
PRESSURE
-0.377655 -0.343702 0.810476 -0.183702 -0.218026 -0.037952
PRIMCOORD
320 1
Pb       4.04805      4.00210      4.24963        -1.069895     -0.257231     -0.282644
Pb       3.95955      3.99506     16.50221        -0.053840     -0.550924      1.043964
Pb       3.93172      0.11906      4.03916        -0.096727     -0.808258      0.053175
Pb       3.83017      0.02284     16.43719         0.251571     -0.364603      0.623408
Pb       0.06840      3.85264      4.16608         0.164077      0.079469     -0.091866
Pb      15.58974      3.75808     16.60622        -0.574267      0.613656      0.200238
Pb      15.46671      0.02303      4.08628         0.306652     -0.525331      0.496293
Pb      15.54232      0.04424     16.58523        -0.145932     -0.835326     -0.205105
Pb       3.80705      3.81099      8.24287         0.401506     -0.016516     -0.029188
Pb       3.96336     15.57296      8.11657        -0.653600      0.141245      0.759962
Pb      15.52969      3.89393      8.33444         0.095313     -0.114113     -0.478966
Pb       0.00533     15.55711      8.23738         0.201809     -0.106080      0.101828
Pb       3.72101      3.91112     12.63389         0.330432     -0.017866     -0.673110
Pb       3.87648     15.50130     12.55093         0.039474      0.127959     -0.182043
Pb      15.60570      3.97588     12.62210        -0.297055     -0.082107     -0.679875
Pb       0.17611     15.55717     12.46273        -0.592023      0.190595     -0.063793
Pb       3.80172      7.89771      4.01736         0.068815     -0.739728      0.151657
Pb       3.96114      7.67706     16.57843        -0.489900      0.733328      0.432321
Pb       0.09146      7.85663      4.14843        -0.436183     -0.316869     -0.339320
Pb      15.50300      7.73467     16.58959         0.365944      0.646904      0.519084
Pb       3.84258      7.73204      8.33578        -0.123753      0.617410     -0.344955
Pb      15.34528      7.69239      8.52632         0.373539      0.584187     -0.472466
Pb       3.97526      7.82323     12.37345        -0.148736     -0.065239      0.229798
Pb      15.41238      7.74610     12.51889         0.656885      0.422423      0.031231
Pb       3.81854     11.68434      4.04907         0.010544      0.598794     -0.217542
Pb       3.94217     11.64157     16.57008        -0.641325      0.032028      0.093030
Pb      15.56317     11.69518      4.11752         0.083295      0.261948     -0.229586
Pb      15.52143     11.76460     16.58053         0.311102     -0.052243      0.567760
Pb       3.85120     11.88603      8.28834        -0.001647     -0.349823     -0.340583
Pb       0.08368     11.63861      8.11704        -0.556382      0.250169      0.516411
Pb       3.96388     11.59560     12.23497        -0.519891      0.211506      0.786658
Pb       0.10243     11.61550     12.42216         0.318076     -0.042467     -0.121853
Pb       7.79392      3.66552      4.13579         0.162355      0.655780      0.243282
Pb       7.90315      3.95890     16.54590        -0.358231     -0.251551      0.624200
Pb       7.82359     15.48149      4.15730        -0.177399     -0.215492     -0.717049
Pb       7.83673      0.13559     16.55110        -0.131411     -0.627152      0.291300
Pb       7.65202      3.79084      8.53578        -0.288419      0.124401     -0.650306
Pb       7.80222      0.01430      8.22022        -0.348580      0.181012      0.762055
Pb       7.79072      3.58758     12.51133        -0.248515      0.746107     -0.030595
Pb       7.76847     15.50373     12.47694         0.149673     -0.473341     -0.346964
Pb       7.95798      7.83005      4.15713        -0.706438      0.158439      0.479515
Pb       7.65253      7.78925     16.57190         0.575008      0.219977      0.223076
Pb       7.84406      7.84661      8.15698         0.258184     -0.102138      0.073799
Pb       7.85844      7.62043     12.38397         0.147296      0.607632     -0.081053
Pb       7.87816     11.62888      4.11249        -0.233311      0.272139     -0.116520
Pb       7.77151     11.83966     16.49347        -0.043167     -0.655233      0.457835
Pb       7.75309     11.70809      8.17984        -0.055068     -0.446283      0.051113
Pb       7.83747     11.56623     12.36159         0.075095      0.781668      0.082082
Pb      11.77052      3.72927      4.28276        -0.324490      0.284109     -0.643174
Pb      11.70530      4.10802      0.30391         0.282728     -0.153847     -0.904206
Pb      11.39911     15.50176      4.13551         0.389915     -0.069472     -0.025608
Pb      11.67999     15.58753     16.49864         0.123733     -0.129479      0.040869
Pb      11.66073      4.14824      8.43272        -0.031458     -0.399341     -0.350306
Pb      11.66884      0.18037      8.39739         0.053072     -0.486301     -0.147707
Pb      11.83494      3.75022     12.49963         0.040386      0.352939     -0.140417
Pb      11.53386     15.52095     12.35713         1.076952     -0.192449      0.670892
Pb      11.60987      7.68053      4.09140         0.336919      0.292537      0.179719
Pb      11.70021      7.86541      0.02846        -0.169506     -0.188422      0.154505
Pb      11.65508      7.81064      8.33325        -0.435072     -0.037614     -0.065440
Pb      11.46774      8.01494     12.50442         0.387211     -0.478303     -0.354708
Pb      11.85778     11.34421      4.19024        -0.608478      0.872233      0.370213
Pb      11.75011     11.63965     16.59425         0.020845      0.204343      0.248578
Pb      11.78681     11.90635      8.42324         0.109567     -0.621418     -0.397761
Pb      11.81397     11.77627     12.42685        -0.777802     -0.075658      0.490989
Ti       1.88328      1.85519      2.23376         0.938290      1.274438      0.761747
Ti       1.90462      1.99320     14.78401         0.612609     -1.187048     -1.542541
Ti       1.83407     13.68419      2.20103         0.293116     -1.576144     -0.102319
Ti       1.95017     13.54543     14.62830        -0.278266      0.441687      0.651580
Ti      13.63917      1.86579      2.23406        -0.838247      0.299659     -0.319132
Ti      13.60559      1.99325     14.67095        -0.451632     -0.534260     -1.199848
Ti      13.49423     13.60522      2.27337         0.897278     -0.663105     -0.584175
Ti      13.61911     13.69243     14.55432        -0.760344     -0.176918      0.651385
Ti       1.86484      1.98658      6.42439         0.129044     -0.090260     -0.346791
Ti       1.88072     13.71913      6.23409        -0.017950     -0.170309      0.060838
Ti      13.57385      1.90743      6.43732         0.515573      0.362602     -0.292828
Ti      13.57163     13.66039      6.30011         0.464443     -1.145826      0.815990
Ti       1.91040      2.02344     10.56553         0.566639     -0.598666     -0.802559
Ti       1.95930     13.71368     10.52127         0.014464     -1.423503     -1.156998
Ti      13.71384      1.87289     10.54990        -0.109682     -0.069949      1.177717
Ti      13.71763     13.59876     10.49590        -0.028044      1.068273      1.351717
Ti       1.90608      5.81352      2.14585         0.221083     -0.017814      1.219457
Ti       1.87795      5.91212     14.74302        -0.395459      0.507350     -0.768190
Ti      13.65996      5.76137      2.22245         0.520726      1.092929      0.100385
Ti      13.57458      5.91295     14.71595        -0.201386     -0.468369      0.395915
Ti       1.85418      5.97091      6.28778        -0.130213     -0.359142      0.420356
Ti      13.58455      5.80298      6.30094         0.312135     -0.079261      1.194368
Ti       1.91042      5.92077     10.59983         0.082569     -0.239874      0.963753
Ti      13.60607      5.83891     10.60199        -0.500040     -0.093136     -0.107931
Ti       1.89641      9.75262      2.13079        -0.047068      0.615167      0.732070
Ti       1.92856      9.77568     14.69673        -0.266648     -0.469070     -0.307516
Ti      13.73629      9.63037      2.22437        -0.468451      0.445909      0.510755
Ti      13.62866      9.75490     14.68639         0.204503      0.391245     -0.169441
Ti       1.92580      9.77693      6.23553        -0.161475     -0.218449      1.528492
Ti      13.60229      9.62088      6.47006         0.731015      1.466921     -0.479981
Ti       1.99698      9.65675     10.47130        -0.919484      1.082436      0.927382
Ti      13.68114      9.78847     10.65671        -0.747662     -0.542253     -1.261899
Ti       5.82737      2.00299      2.17498        -0.318643     -0.795203     -0.824601
Ti       5.86761      1.98826     14.71302        -0.398961     -1.139626     -0.098887
Ti       5.80325     13.68796      2.10194        -0.346116     -0.004329      1.829326
Ti       5.83841     13.64839     14.61761        -0.013416      0.057616     -0.759836
Ti       5.91967      1.87957      6.27306        -0.968359      1.223804      1.040624
Ti       5.83110     13.66636      6.24464        -0.625144     -1.164494      1.616028
Ti       5.71172      1.83362     10.65285         0.731269      0.696082     -1.010978
Ti       5.77449     13.62628     10.47539         0.890213     -0.166837      0.349503
Ti       5.87575      5.84784      2.31242        -1.429267      0.468898     -0.623125
Ti       5.79003      5.91183     14.65582         0.693621     -0.411047     -0.176134
Ti       5.72589      5.89243      6.36587         1.535034     -0.917366     -0.274186
Ti       5.84612      5.68309     10.64943         0.331963      0.034656     -0.195032
Ti       5.80144      9.77258      2.21088         0.612491     -0.021890      0.607246
Ti       5.85932      9.76892     14.63036        -0.251353      0.447035      0.151560
Ti       5.77224      9.71348      6.29233         0.503133      0.992718      1.424681
Ti       5.95744      9.64306     10.44514         0.525535      0.040462      0.810372
Ti       9.76630      1.96653      2.14859        -0.108670     -0.362364      0.801714
Ti       9.80695      1.96673     14.74801         0.039062     -0.787899      0.029809
Ti       9.67839     13.62207      2.07510        -0.456798     -0.330764      1.104599
Ti       9.74248     13.59337     14.70342         0.513689      0.600608     -0.785396
Ti       9.76253      1.97514      6.42277        -0.364072      0.119321     -0.234183
Ti       9.68435     13.65044      6.45757         0.936025     -0.648373     -0.428615
Ti       9.77658      1.92151     10.57564        -0.504661     -0.286065     -1.047688
Ti       9.76311     13.61398     10.44630        -0.485891     -0.726316      0.628653
Ti       9.72087      5.80955      2.24805         0.042519      0.198366      0.510240
Ti       9.71455      5.86501     14.71226         0.681079      0.415630      0.229395
Ti       9.63487      5.75931      6.29684        -0.107416      0.743344     -0.217814
Ti       9.76015      5.67598     10.66238        -0.280032      1.588324     -0.777190
Ti       9.76706      9.78361      2.12094        -0.053398     -0.232484      1.349078
Ti       9.72916      9.74907     14.72154        -0.026834     -0.194520      1.622688
Ti       9.81773      9.80496      6.31000        -0.975428     -0.308415      1.265865
Ti       9.80676      9.81092     10.39393        -0.689950     -0.499941      0.203166
O       1.89026      1.88119      0.44769        -0.210733     -0.035518     -0.259971
O       1.97841      1.94009     12.94950        -0.194219     -0.109018      0.454398
O       1.88376     13.48322      0.42651        -0.138630      0.772337     -0.598667
O       2.07141     13.71382     12.86397        -0.834049     -0.420372     -0.225647
O      13.65333      1.95323      0.44878         0.047115     -0.085346     -0.269111
O      13.57325      1.98061     12.82912         0.565898      0.360128      1.855373
O      13.62447     13.39199      0.48992        -0.545141      0.730292      0.065823
O      13.41731     13.64556     12.81904         0.741032      0.054302     -0.254235
O       1.71376      2.03207      4.64406         0.160730     -0.248099     -0.148304
O       1.86818     13.66748      4.46311        -0.125898     -0.137079      0.549697
O      13.59489      2.12354      4.61430         0.029604     -0.609099      0.334293
O      13.64616     13.61896      4.54704        -0.283850      0.273436     -0.537749
O       1.80952      1.98926      8.75378         0.394899     -0.091320      0.642329
O       1.97855     13.59039      8.71701        -0.133936      0.292621      0.132412
O      13.59170      1.85102      8.78493         0.276098      0.147371     -0.661989
O      13.66635     13.56560      8.76484         0.103325      0.314185     -1.006731
O       2.00588      5.80126      0.37138        -0.003061     -0.186518     -0.521373
O       1.77974      5.69251     12.89787         0.445934      0.434482      0.981722
O      13.63503      5.84751      0.40402        -0.195592     -0.057639      0.110799
O      13.67667      5.85481     12.91742         0.154435     -0.311788      0.301348
O       1.75334      6.04533      4.52430         0.294646     -0.847928      0.241737
O      13.60795      5.89271      4.54729         0.058171     -0.311424      0.318628
O       2.00233      6.18406      8.88099        -0.161901     -0.690248     -0.893097
O      13.49579      5.83305      8.75126         0.373106     -0.067709      0.943052
O       1.85153      9.78863      0.41308         0.453785     -0.083011     -1.369066
O       1.78200      9.80293     12.91573         0.548030      0.046306      0.135120
O      13.68520      9.67476      0.46666        -0.415883      0.120933     -0.947752
O      13.59140      9.83074     12.90007         0.059960     -0.558207     -0.625734
O       1.80854      9.77399      4.46413         0.405160     -0.199464      0.369497
O      13.56043      9.67995      4.65104         0.310280     -0.298991      0.227781
O       1.98825      9.66621      8.74173        -0.266620     -0.295841     -0.299544
O      13.54733      9.65878      8.85251         0.046403      0.158051     -0.157441
O       5.68934      1.93842      0.35890         0.603540      0.120613      0.687625
O       5.85013      1.83675     12.89854         0.298648     -0.008497      0.207875
O       5.85009     13.69725      0.37176        -0.076866     -0.142112     -1.139791
O       5.80798     13.61399     12.79248         0.172414      0.033826      1.012735
O       5.87914      1.92372      4.50773         0.123516     -0.098821     -0.706275
O       5.85669     13.58335      4.53601        -0.080813      0.582870     -0.992255
O       6.04975      1.88001      8.83895        -0.866745      0.258312      0.490414
O       5.73429     13.61852      8.70103         0.208574      0.002478      0.337099
O       5.65169      5.89916      0.46715         0.125381     -0.185873     -0.097057
O       5.87542      5.95389     12.91646        -0.072578     -0.246837      0.190010
O       5.80576      5.77248      4.58642        -0.306260      0.096782      0.071960
O       5.87297      5.47329      8.88070        -0.128234      0.796080     -0.945049
O       5.82342      9.67135      0.44507        -0.216686      0.042007     -0.072500
O       5.84752      9.72997     12.87304        -0.024928     -0.000521     -0.036004
O       5.74507      9.81881      4.56054        -0.047434     -0.206791     -0.296227
O       6.06824      9.60368      8.71335        -0.360945      0.367490     -0.164646
O       9.75018      1.91547      0.39268         0.269254      0.221898     -0.289158
O       9.64848      1.79545     12.97952         0.275796      0.476977     -0.863401
O       9.48484     13.59658      0.33974         0.733070      0.286642     -0.060190
O       9.76407     13.56480     12.90975        -0.071937      0.297233     -0.240369
O       9.76328      1.91517      4.56342        -0.109021      0.054967      0.789157
O       9.74622     13.69135      4.68260        -0.326580      0.613793     -0.676408
O       9.66110      1.89566      8.74226         0.383775      0.060657      1.084311
O       9.80327     13.60357      8.66966        -0.236402      0.052804     -0.364760
O       9.73332      5.79509      0.44640         0.141282     -0.215110      0.481750
O       9.73504      5.92427     12.93636         0.022536     -0.292841      0.359492
O       9.70878      5.83046      4.48437        -0.087926     -0.197310      0.440790
O       9.71690      5.66120      8.84527         0.307229      0.213271      0.294813
O       9.82914      9.69642      0.38844        -0.519600     -0.053560     -0.298474
O       9.82807      9.72108     13.01146        -0.212476      0.119382     -1.482180
O       9.81212      9.79401      4.55222        -0.246583     -0.258727     -0.982469
O       9.65906      9.78664      8.62549         0.335026     -0.130877     -0.123708
O       3.90014      1.87497      2.55729        -1.091488     -0.087410     -0.160426
O       3.88976      1.92484     15.08001        -0.774782     -0.269128     -0.641472
O       3.77924     13.73472      2.47242         1.437539     -0.059222      0.036433
O       3.83741     13.65266     14.75545         0.664489     -0.189709      1.164900
O      15.53763      1.90820      2.53519         0.534850      0.319690     -0.070902
O      15.53659      1.81671     15.04987         0.508433      1.184941     -0.185791
O      15.50152     13.52068      2.42946         0.094032      0.619363      0.555661
O      15.46136     13.46762     14.88103         0.597488      0.307738     -0.183113
O       3.80003      1.91259      6.64575         0.434514     -0.115917      0.022824
O       3.82595     13.64528      6.65624         0.298515      0.227423     -0.373252
O      15.49664      1.87927      6.82460        -0.249322      0.317171     -0.279767
O       0.02105     13.64345      6.67538        -0.776269      0.415480     -0.079863
O       3.89147      1.79885     10.88118        -0.594572      0.567711     -0.093882
O       3.90235     13.51487     10.75359         0.235514      0.139217      0.329641
O       0.08100      1.86641     10.89197        -0.495443      0.112375      0.143031
O       0.06285     13.66939     10.89197        -1.041360      0.059255     -0.046174
O       3.72768      5.85637      2.64996         0.874076     -0.009134     -0.117407
O       3.87150      5.79394     14.94352         0.116508      0.484350     -0.217573
O      15.55230      5.92801      2.46475         0.576927     -0.723395     -0.006698
O       0.03537      5.91195     15.13095        -0.661466     -1.008106     -0.617103
O       3.86037      5.72928      6.67543        -0.031218      0.468582      0.066363
O      15.60787      5.84904      6.65848        -0.620382      0.294717      0.345626
O       3.96332      5.82806     10.95021        -1.210655      0.948601      0.090681
O      15.56914      5.92345     10.86902         0.332502     -0.624141     -0.237877
O       3.86103      9.74123      2.59709         0.445828      0.316993     -0.663362
O       3.85594      9.76622     14.95762         0.452264      0.002164      0.106162
O       0.00339      9.85855      2.41900        -0.626849     -0.390967      0.591408
O      15.52925      9.75373     14.96121        -0.274610      0.139505      0.133846
O       3.86572      9.83531      6.78608        -0.059887     -0.568370     -0.828449
O      15.55220      9.61100      6.78011         0.420957     -0.033190     -0.404674
O       3.91579      9.55402     10.71245         0.436391      0.026167      0.192329
O      15.52825      9.72611     10.84169         0.728709      0.183416      0.054544
O       7.77645      2.15647      2.33503         0.020680     -0.397217      0.357035
O       7.84261      1.99172     15.09310        -1.016660      0.077961     -0.444815
O       7.75494     13.65229      2.59777         0.407705     -0.263605     -0.322517
O       7.81450     13.65428     14.90859        -1.511700     -0.281353     -0.050354
O       7.74227      1.87313      6.62812         1.502820     -0.290221     -0.081016
O       7.69883     13.61367      6.72247         1.112202      0.673695     -0.387349
O       7.81394      1.97803     10.84880         0.510746     -0.234523      0.419638
O       7.83537     13.56429     10.82718        -0.622924      0.228586     -0.216420
O       7.66875      5.79919      2.37892         1.748421     -0.334725      0.338182
O       7.72859      5.80690     15.13735        -0.145616      0.051477     -0.669795
O       7.78623      5.86174      6.52377        -0.435017     -0.254338      0.565204
O       7.82168      5.55377     10.97212         0.373017      0.536727      0.013460
O       7.73932      9.71824      2.63965         0.366472      0.156570     -0.629202
O       7.80434      9.79658     15.00364        -0.602045     -0.035770     -0.013642
O       7.78768      9.63379      6.55934        -0.572642      0.839745     -0.036401
O       7.92100      9.82375     10.92192        -1.019630     -0.667445     -0.517362
O      11.66909      1.90648      2.52777        -0.057251      0.081694      0.026703
O      11.69242      1.81247     14.93573         0.382883      0.480087      0.148794
O      11.55749     13.75890      2.44036         0.424954     -0.035584     -0.039695
O      11.62620     13.84910     14.94955         0.687897     -0.836830      0.496634
O      11.64643      2.02597      6.85225         0.396681     -0.090403     -0.646921
O      11.75150     13.46732      6.71010        -0.473387      0.785687     -0.205296
O      11.78097      1.90624     10.89640        -1.623157      0.307819     -0.338055
O      11.70821     13.56313     10.72913        -0.137491      0.463608     -0.026346
O      11.74008      5.90174      2.57961        -0.975626     -0.258747     -0.740410
O      11.68100      5.91295     15.09330        -0.114743     -0.207331     -0.341715
O      11.62292      5.78223      6.66020         0.514538      0.007778     -0.072786
O      11.70515      5.78363     10.96046         0.201898     -0.199927     -0.300729
O      11.67192      9.62638      2.42983        -0.025028     -0.001359      0.362874
O      11.68463      9.50000     15.04083        -0.155342      0.533211     -0.091886
O      11.66358      9.76911      6.62068         0.786613     -0.215651      0.515911
O      11.64192      9.88210     10.89793         0.623454     -0.978042     -0.086093
O       1.94399      3.84672      2.63171        -0.604966     -0.059255     -0.633332
O       1.97005      3.84505     14.89315        -0.586374      0.330242      0.699045
O       1.85601     15.55552      2.65405        -0.278583      1.483934     -0.608651
O       1.77535     15.51880     14.99793         0.459656      0.096041      0.116955
O      13.56650      3.90518      2.38342         0.104825     -0.523362      0.519333
O      13.64803      3.93096     15.01859         0.196470     -0.610515     -0.099935
O      13.65802     15.59344      2.49759        -0.206506     -0.255594      0.073253
O      13.64491     15.60053     14.92884         0.283942     -0.084710      0.416650
O       1.88499      3.91441      6.78063        -0.342150      0.384951     -0.212974
O       1.81634      0.01728      6.61834         0.361551     -0.205425      0.178132
O      13.73085      3.89786      6.70749        -0.496378      0.340436     -0.001251
O      13.48913     15.58869      6.58107         0.334984      0.293871      0.308373
O       2.07875      3.91189     10.84643        -0.617709     -0.034924     -0.127517
O       2.04698     15.52332     10.82273        -0.319510      1.314508      0.361244
O      13.77379      3.86817     10.84833        -0.320944      0.355727      0.133174
O      13.62034      0.02347     10.94122         0.441535     -1.009779     -0.561020
O       1.94068      7.82750      2.37688        -0.249471     -0.360745      0.421676
O       1.87659      7.81441     14.96336         0.468680     -0.703235      0.035292
O      13.77384      7.79996      2.60432        -0.573948      0.005738     -0.357778
O      13.66957      7.77933     14.98562         0.119937     -0.070602      0.050493
O       1.96502      7.84824      6.51335         0.506549     -0.509844      0.434379
O      13.56401      7.73462      6.92794        -0.022594     -0.259003     -1.004980
O       1.85101      7.80928     11.05608         0.478213     -0.170751     -0.324838
O      13.67884      7.78461     10.82191        -0.457840     -0.157529      0.284017
O       1.91662     11.67795      2.49395         0.380761      0.419828      0.371535
O       1.87552     11.64890     15.06438         0.279480      0.857499     -0.490631
O      13.56821     11.65075      2.67363        -0.122418     -0.049938     -0.542039
O      13.28395     11.64326     14.89336         0.848029      0.397597      0.064592
O       1.82082     11.68649      6.53601         0.403843     -0.111151      0.035027
O      13.77659     11.66899      6.66337        -0.450262     -0.313247      0.116762
O       1.91045     11.69094     10.83963         0.327123     -1.025471     -0.008568
O      13.59274     11.73124     10.87071         0.702086     -0.202865     -0.174460
O       5.64356      3.88270      2.60821         0.647494      0.265769     -0.421135
O       5.73005      3.81430     14.86650         0.469273      1.515530      0.198386
O       5.90029      0.02217      2.52782        -0.018790      0.028684     -0.018687
O       5.79402     15.56509     14.92043         0.260004     -0.141994      0.094040
O       5.84935      3.73488      6.63486        -0.267391      1.103898      0.161244
O       5.85608     15.60562      6.74960        -0.207540     -0.552817     -0.748841
O       5.72159      3.85482     11.01739         0.373561     -1.242440      0.340274
O       5.76710     15.52905     10.78322         0.502514     -0.240306      0.412687
O       5.77564      7.75273      2.62147        -0.037064      0.379774     -0.355134
O       5.81167      7.86715     14.94516         0.069397     -1.234281      0.308913
O       5.84277      7.77689      6.73414        -0.677152     -0.681175     -0.420132
O       6.11018      7.71278     10.84745        -0.911776      0.304307     -0.312554
O       5.83850     11.75992      2.49389        -0.409884     -0.760213     -0.391782
O       5.80887     11.68226     15.09491         0.074861      0.550497     -0.642944
O       5.81038     11.74452      6.67929         0.140470     -0.637618     -0.102014
O       5.79179     11.55455     10.82544         0.470724      0.536541     -0.542501
O       9.82615      3.88957      2.59894        -0.123193      0.122555     -0.588344
O       9.83153      3.88068     15.06212        -0.367863      0.341501     -0.209560
O       9.58014     15.59707      2.45393         0.259305      0.384344      0.223335
O       9.70443     15.55352     15.03319        -0.351593      0.953112      0.300206
O       9.70258      3.83927      6.68903        -0.106757      0.330353     -0.372245
O       9.84946     15.59390      6.72215        -0.278041      0.305431     -0.065136
O       9.84290      3.83773     10.94007         0.092264     -1.293591      0.205846
O       9.76916     15.53878     10.78743        -0.182655      0.756725      0.011050
O       9.65771      7.74868      2.60255         0.263875     -0.064320     -0.666488
O       9.61356      7.76963     15.06585         0.095265     -0.416556     -0.128848
O       9.67031      7.83038      6.56249         0.708951     -0.922992      0.275188
O       9.76369      7.81217     10.79508        -0.037651     -0.393453      0.286870
O       9.80484     11.66692      2.48221        -0.610476      0.249230     -0.288744
O       9.84077     11.69894     15.08942        -0.179281     -0.552104     -0.294526
O       9.73434     11.75247      6.53923        -0.607999     -0.637050      0.655364
O       9.77188     11.67777     10.73868        -0.170426      0.621397      0.211873
