  # total energy = -7882.27365657 
CRSYTAL
PRIMVEC
    15.6080000000000005    0.0000000000000000    0.0000000000000000
     0.0000000000000000   15.6080000000000005    0.0000000000000000
     0.0000000000000000    0.0000000000000000   16.6239999999999988
PRESSURE
-1.16437 -0.939857 -0.264637 -0.162539 0.240097 -0.034981
PRIMCOORD
320 1
Pb       3.99369      3.85237      4.19106        -0.318757      0.478338     -0.392191
Pb       3.88867      3.88644      0.01556        -0.149308     -0.036031     -0.361494
Pb       3.92734      0.02430      4.12728         0.264896     -0.159853      0.112508
Pb       3.83593     15.54444     16.55908         0.081147      0.139621     -0.412138
Pb      15.50129      3.85197      4.09185         0.642692      0.340018      0.538925
Pb      15.57976      3.81781     16.59534        -0.201068      0.311540     -0.255047
Pb       0.01057     15.57400      4.07988        -0.167578      0.241125      0.745285
Pb       0.04618      0.00637      0.00221        -0.205179     -0.303436     -0.370271
Pb       3.87563      3.87877      8.28014         0.228108     -0.187539      0.269043
Pb       3.97951      0.12116      8.32300        -0.038485     -0.570240     -0.141078
Pb      15.54345      3.93908      8.23232         0.213135     -0.416882      0.434535
Pb       0.05630     15.59401      8.26475         0.195761      0.176940     -0.143530
Pb       3.70691      4.00229     12.60425         0.750910     -0.539434     -0.254154
Pb       3.80875     15.46672     12.48781         0.127917      0.267033     -0.260205
Pb      15.56567      3.87595     12.45832         0.167694     -0.450568     -0.351695
Pb       0.08515     15.59665     12.46276        -0.113219     -0.512451     -0.308026
Pb       3.74492      7.86239      4.02679         0.193156     -0.662874      0.649177
Pb       3.81725      7.67561     16.57165         0.443450      0.687625     -0.020321
Pb       0.01819      7.88826      4.02699         0.171919     -0.478773      0.456140
Pb      15.56285      7.77606     16.60289        -0.103290      0.056415      0.059084
Pb       3.94571      7.78573      8.33049        -0.251727      0.170127     -0.373894
Pb      15.43399      7.76966      8.48761         0.608050      0.275332     -0.881315
Pb       3.87576      7.85604     12.51994         0.178257     -0.321426     -0.485520
Pb      15.44671      7.72360     12.47961         0.324238      0.457571     -0.028324
Pb       3.90027     11.71258      4.11685        -0.275155     -0.077140      0.170737
Pb       3.87926     11.67840     16.53924         0.178812     -0.519886     -0.475336
Pb      15.58850     11.80605      4.10930         0.068406     -0.344283      0.235741
Pb       0.01145     11.80817      0.06258        -0.045934     -0.202736     -0.011945
Pb       3.85129     11.83081      8.32294         0.277593     -0.696043     -0.561533
Pb      15.48444     11.68063      8.16709         0.803651     -0.231255      0.343307
Pb       3.83053     11.76957     12.39788        -0.067533     -0.253361     -0.255949
Pb      15.60697     11.53866     12.41141         0.075221      0.591197     -0.459578
Pb       7.73477      3.74271      4.12063        -0.046374      0.342951      0.070330
Pb       7.66168      3.80018     16.56289         0.933624     -0.119035      0.147925
Pb       7.73135     15.51596      4.12255        -0.072949      0.419748     -0.283992
Pb       7.78301     15.59397      0.00738         0.417578      0.107447     -0.033960
Pb       7.74376      3.84979      8.47396        -0.321551     -0.045534     -0.407174
Pb       7.87269     15.54996      8.40366        -0.817689      0.094605     -0.355071
Pb       7.79395      3.80399     12.50880        -0.485204      0.129319     -0.530750
Pb       7.89012      0.03312     12.52926        -0.633296     -0.008755     -0.556354
Pb       7.76458      7.79990      4.01820        -0.058782     -0.158017      0.763965
Pb       7.75323      7.83876     16.53890         0.340899     -0.186020     -0.328603
Pb       7.94533      7.85884      8.29751        -0.660820     -0.088419     -0.368718
Pb       7.93902      7.64935     12.46614        -0.687920      0.525109      0.014808
Pb       7.80524     11.77008      4.03684        -0.091408     -0.296779      0.682819
Pb       7.77029     11.65963     16.51530         0.086995      0.058776      0.195300
Pb       7.68629     11.69257      8.29214        -0.529236     -0.034879     -0.549042
Pb       7.81026     11.58305     12.47461        -0.235773      0.046100     -0.746914
Pb      11.76265      3.92469      4.29243        -0.334458     -0.149899     -0.241208
Pb      11.75620      4.02901      0.12269        -0.185762     -0.699891     -0.584310
Pb      11.58411      0.07996      4.18852        -0.013854      0.177561      0.153077
Pb      11.64655     15.58436     16.55530         0.033824     -0.256902      0.027578
Pb      11.63612      4.03426      8.37328         0.243448     -0.509436     -0.517849
Pb      11.50215     15.56698      8.27080         0.466078      0.428854     -0.036910
Pb      11.75637      3.76661     12.45741        -0.021105      0.235943     -0.282532
Pb      11.65357     15.48499     12.38842         0.319186      0.065433     -0.065918
Pb      11.74741      7.62143      3.97717        -0.370010      0.729153      0.479941
Pb      11.66992      7.78796      0.01452        -0.258952      0.355410     -0.543220
Pb      11.65324      7.83538      8.17640        -0.106884     -0.237048      0.034142
Pb      11.53733      7.87004     12.51040         0.351904     -0.110845      0.051704
Pb      11.72741     11.59619      4.30849        -0.038670     -0.023657     -0.597076
Pb      11.89597     11.71980     16.58564        -0.651177     -0.026284     -0.037822
Pb      11.75360     11.79021      8.37716         0.015231      0.127069     -0.620404
Pb      11.63373     11.69103     12.35080         0.414383     -0.108549      0.268580
Ti       1.92322      1.95679      2.11558         0.151297      0.958428      0.341354
Ti       1.93087      1.94231     14.60133         0.091621     -0.545824     -0.904214
Ti       1.91513     13.82115      2.18264         0.294780     -2.116491      1.080559
Ti       1.87756     13.59111     14.67888         0.116809      0.202188     -1.294057
Ti      13.58902      1.92902      2.17845         0.055682     -0.030908      0.610859
Ti      13.67269      1.76732     14.62989        -0.481072      0.834862     -0.324812
Ti      13.59344     13.74885      2.26652         0.932393     -1.120935     -0.849064
Ti      13.68572     13.57491     14.66416        -0.008406     -0.063272     -0.667903
Ti       2.00193      1.87660      6.29747        -0.588312     -0.259692      0.910047
Ti       1.97833     13.59527      6.36119         0.123114      0.251620     -0.031244
Ti      13.61296      1.89906      6.44838         0.031369      0.195575      0.448205
Ti      13.61342     13.70491      6.43380         0.087347     -0.515604     -0.121138
Ti       1.97740      1.92406     10.53010        -0.427139     -0.300170      0.228845
Ti       1.96959     13.64098     10.43371        -1.088910     -1.148251     -0.025998
Ti      13.69918      1.92541     10.51912         0.339873      0.044903     -0.776491
Ti      13.67288     13.66202     10.45501         0.915459     -0.880069     -0.230886
Ti       1.96232      5.78037      2.18336         0.267677      0.417350      0.717886
Ti       2.00035      5.81950     14.67097        -0.743046      0.567965      0.231775
Ti      13.63721      5.74936      2.25135         0.595206      1.021367      1.027648
Ti      13.67268      5.69884     14.61907        -0.072039      0.309099      1.140660
Ti       1.99509      5.70819      6.43653        -0.994021      1.231058     -1.123889
Ti      13.61756      5.85807      6.43345         0.728631     -0.249938     -1.144325
Ti       1.96305      5.71600     10.50828        -0.023550      0.936338     -1.005464
Ti      13.63644      5.86097     10.58982        -0.750384     -0.170204      0.124021
Ti       1.93084      9.79975      2.09267        -0.402252     -0.381341      1.418329
Ti       1.87413      9.68841     14.68355         0.520529      0.548721     -0.072794
Ti      13.64681      9.81487      2.15702        -0.343567     -0.936749      0.917338
Ti      13.65971      9.67975     14.73088         0.091079      0.401222      0.264427
Ti       1.98716      9.64281      6.46189        -0.233188      0.308840     -0.663396
Ti      13.64764      9.74496      6.25578         1.128876     -0.105645      0.085823
Ti       1.97756      9.60148     10.48087        -0.504632      0.903957     -0.741570
Ti      13.63113      9.69922     10.47584         0.114211      0.549026     -0.032540
Ti       5.80822      1.97419      2.06912         0.456043     -0.983235      1.455060
Ti       5.80415      1.84467     14.62540         0.485496      1.027330     -0.298547
Ti       5.84615     13.60450      2.13617        -0.193556      1.121860      1.113592
Ti       5.81923     13.63878     14.67731         0.188963     -0.406425      0.138225
Ti       5.84231      1.97127      6.41642         0.308256     -0.306578      0.644351
Ti       5.82739     13.71041      6.27168        -0.230330     -0.940592      1.639253
Ti       5.75407      1.93049     10.62149         0.650657      0.104730     -0.278637
Ti       5.87634     13.71470     10.53488         0.476060     -0.416105     -1.295446
Ti       5.88772      5.89173      2.08865        -0.833669      0.033999      0.937994
Ti       5.91383      5.75655     14.75271        -0.032690      0.977245     -1.802862
Ti       5.82741      5.82852      6.37123         1.556027      0.055647     -0.348525
Ti       5.75470      5.86760     10.57106         0.952625     -0.567698      1.102580
Ti       5.83597      9.78207      2.13476        -0.450522     -0.741167     -0.186928
Ti       5.87031      9.70267     14.54651        -0.767475     -0.253650      2.370495
Ti       5.87053      9.66665      6.26379         0.128971      1.032529      1.404667
Ti       5.74826      9.72858     10.44768         1.546435      0.405077      1.325668
Ti       9.71476      1.93222      2.20252        -0.496148     -0.157346     -0.614884
Ti       9.84642      1.90559     14.70114        -0.589377     -0.020770      0.940848
Ti       9.90367     13.63614      2.21890        -1.579018     -0.304516     -1.038922
Ti       9.74525     13.63150     14.63643         0.586875     -0.196518      0.764096
Ti       9.63053      2.00256      6.37944         0.202243     -0.522508      0.562524
Ti       9.67409     13.65090      6.33297        -0.095865     -0.114481      0.794580
Ti       9.77713      1.95238     10.56205        -0.588666     -0.282298     -0.714571
Ti       9.70759     13.64978     10.49626        -0.688197     -0.764112      0.612152
Ti       9.65717      5.78734      2.16510         0.180885     -0.091329      0.323829
Ti       9.80442      5.72315     14.68951        -0.600114      1.279132      0.412734
Ti       9.64149      5.84859      6.36533        -0.033277      0.507315      0.420655
Ti       9.76304      5.81857     10.51232        -0.376214      0.481791      0.140801
Ti       9.69890      9.71041      2.19627         1.044137      0.503681     -0.262297
Ti       9.75547      9.83043     14.67984         0.485969     -1.655033     -0.429691
Ti       9.81337      9.81139      6.34764        -1.475776     -0.804846      1.011773
Ti       9.74801      9.70747     10.46730        -0.768045      0.273995      1.236671
O       1.88708      1.96014      0.31246         0.271467     -0.167943     -0.094087
O       1.89110      1.96703     12.76958        -0.004931     -0.314231      1.661515
O       1.78302     13.70586      0.44770         0.428207      0.407853     -1.403590
O       1.92323     13.61445     12.86636        -0.061960     -0.108649      0.369576
O      13.65460      1.89029      0.42531         0.065991      0.153072     -0.144780
O      13.70368      1.80146     12.80676        -0.332767      0.313731      0.816597
O      13.76838     13.59105      0.44361        -0.565524      0.631368      1.122140
O      13.76298     13.53310     12.89198        -0.256772      0.263884     -0.436848
O       2.09085      1.90711      4.53172        -0.079028      0.009269     -0.438518
O       2.03259     13.75802      4.53013        -0.056916     -0.604802     -0.231547
O      13.57618      1.88932      4.66139        -0.060602      0.203496     -0.030018
O      13.63551     13.62757      4.63596        -0.240104      0.274532     -0.401106
O       2.05450      1.83807      8.75528        -0.220413      0.156398      0.014000
O       1.83943     13.69382      8.64976         0.353084     -0.146785      0.552332
O      13.78109      2.09623      8.75238        -0.335876     -0.807803     -0.083713
O      13.65556     13.48350      8.59473         0.027911      0.253701      1.543237
O       2.03290      5.85264      0.39144        -0.166604     -0.452948     -0.212210
O       1.88236      5.89714     12.88490         0.443501     -0.176570      0.279920
O      13.62596      5.55162      0.51542         0.032332      0.479088     -0.670200
O      13.63446      5.77502     12.84243         0.303108      0.129066      0.336843
O       2.00616      5.76896      4.62340        -0.016176     -0.333682      0.787844
O      13.65027      5.71626      4.59385        -0.443587     -0.040445      0.448724
O       1.98744      5.60729      8.69401         0.112392      0.102672      0.700506
O      13.57168      5.93777      8.81678         0.175222     -0.316693     -0.425680
O       1.93254      9.73147      0.36380         0.276555     -0.232317     -1.139799
O       1.85420      9.79265     12.89730         0.377319     -0.696903     -0.255871
O      13.61828      9.68169      0.36688        -0.046863      0.380585      0.292822
O      13.79571      9.70034     12.96526        -0.327091     -0.178313     -0.480840
O       1.98372      9.65495      4.60165        -0.121848      0.002233      0.727625
O      13.71667      9.87023      4.47261        -0.037475     -0.480547      0.540223
O       1.97521      9.70331      8.69407         0.097174     -0.238413      0.670166
O      13.83475      9.69189      8.68386        -1.118055     -0.036784      0.375028
O       5.94281      1.93678      0.32635        -0.232702     -0.052839     -0.489762
O       5.89074      1.85181     12.82402         0.120436      0.217103      0.876149
O       5.92185     13.60732      0.36859        -0.505776      0.044360     -0.184740
O       5.74021     13.67109     12.93862         0.235831      0.253785     -0.119895
O       5.80152      2.01575      4.65264         0.053112      0.046933     -1.315062
O       5.75984     13.60708      4.50706        -0.365951      0.371112     -0.780159
O       5.72559      1.82720      8.80799         0.109273      0.374529      0.325977
O       6.00230     13.75314      8.66959        -0.327879     -0.188100      1.793670
O       5.85251      5.76776      0.31534        -0.081035     -0.055205     -0.045130
O       5.81181      5.79378     12.92130         0.105863     -0.269318      0.520678
O       6.00127      5.78185      4.60991        -0.429663     -0.200267     -0.546696
O       5.79794      5.87073      8.84648        -0.167013     -0.060311     -1.322776
O       5.81102      9.89921      0.35191         0.015161     -0.204725      0.849047
O       5.96502      9.81343     12.84767        -0.465464     -0.416062     -0.929235
O       5.99855      9.71843      4.50472        -0.567162      0.016925     -0.419161
O       5.67622      9.80380      8.69681         0.509339     -0.259825      0.603527
O       9.70875      1.80335      0.39188         0.304612      0.214484      0.438624
O       9.86095      1.87694     12.92846         0.016970     -0.158827     -1.360787
O       9.93500     13.61873      0.38070        -0.403290     -0.042666      1.026121
O       9.83783     13.60594     12.87312        -0.162114      0.315050     -0.240371
O       9.63999      1.90768      4.60296         0.067406      0.084864     -0.083211
O       9.79725     13.56427      4.60100        -0.052884      0.634955     -0.875458
O       9.67296      2.03054      8.78362         0.387532     -0.198492      0.441495
O       9.57326     13.62544      8.73091         0.365016     -0.236945     -0.634117
O       9.71433      5.73985      0.40531         0.302455     -0.080357     -0.396110
O       9.63204      5.93632     12.92724         0.641214     -0.396726     -0.163679
O       9.67690      5.90443      4.61541         0.031130     -0.333240     -0.910629
O       9.84364      5.83463      8.72229        -0.176335      0.042755      0.294836
O       9.82894      9.83093      0.42596        -0.230402     -0.090417      0.288128
O       9.69354      9.59739     12.84847         0.335580      0.690019      1.170978
O       9.54026      9.51719      4.68364         0.172412      0.726277     -2.015493
O       9.77056      9.62390      8.70905         0.235770      0.524320     -0.305607
O       3.90249      2.00503      2.34749        -0.255047     -0.399520      0.078296
O       3.92404      1.94281     14.89314        -0.361035     -0.220129      0.308896
O       3.80186     13.75634      2.36147         0.436609     -0.504045      0.097727
O       3.81631     13.67607     14.90758         1.253573      0.221042      0.983789
O       0.00894      1.94859      2.48218        -0.652390      0.073679      0.043752
O      15.60069      1.95899     14.87500         0.101935     -0.022256      0.381310
O      15.52685     13.62744      2.55634         0.158036      0.621469      0.273777
O       0.05981     13.80646     15.09699        -0.826926     -0.545372     -0.333119
O       3.93493      2.05920      6.70641        -0.972454     -0.168348     -0.140995
O       3.92395     13.56863      6.72793        -0.237917      0.206927     -0.340089
O      15.60288      1.72043      6.58349        -0.081404      0.463466      0.159458
O       0.09055     13.53418      6.51739        -1.520404      0.785918      0.351060
O       3.83738      1.84865     10.94445         0.610940      0.471654     -0.176862
O       3.90512     13.64943     10.68392        -0.101707     -0.143585      0.460084
O       0.05282      2.00713     10.78561        -0.505331     -0.704181      0.322049
O      15.58419     13.49701     10.82693        -0.459582      0.493066     -0.419619
O       3.92044      5.90550      2.53197         0.420662     -0.928348     -0.415239
O       3.95144      5.82743     15.01381        -1.102965     -0.108547     -0.169336
O      15.58923      5.74738      2.60597        -0.128207     -0.138889     -0.630325
O      15.56737      5.79233     15.10597         0.212223     -0.221076     -0.526984
O       3.99314      5.68488      6.63456        -1.488726     -0.067170      0.304823
O      15.59145      5.75165      6.72799        -0.055799      0.319344      0.008641
O       3.85793      5.60279     10.89263         0.326723      0.303008     -0.029298
O       0.02549      5.95837     10.83757        -0.527319     -0.506055     -0.149371
O       3.85220      9.61238      2.53932         0.196452      1.232128     -0.635505
O       3.89290      9.70594     14.97189        -0.047559      0.017824     -0.307640
O      15.58492      9.56268      2.41947         0.024855      0.423271     -0.148328
O       0.03382      9.70050     14.98752        -0.744293     -0.076390      0.421150
O       3.90016      9.83617      6.73263         0.195618     -0.545409     -0.632150
O      15.56807      9.73985      6.62624         0.149440     -0.197927     -0.048540
O       3.92549      9.87095     10.85495        -0.360581     -0.547087      0.328639
O       0.05737      9.52294     10.69252        -0.195697      0.168855      0.736472
O       7.77574      1.73957      2.54876        -0.486397      0.503237     -0.237117
O       7.93147      1.78175     14.97420        -0.560003      0.339672     -0.164265
O       7.74096     13.74619      2.58209         0.106272     -0.800719     -0.633167
O       7.81651     13.73731     15.00916        -0.006096     -0.386768     -0.462588
O       7.72038      2.01824      6.87605         1.032105     -0.656178     -0.468821
O       7.69363     13.77881      6.61052         1.548190     -0.376866     -0.257145
O       7.79738      1.86726     10.82186         0.967530     -0.231422      0.531565
O       7.78209     13.76675     10.93323         0.545893     -0.243150      0.004137
O       7.77513      5.91024      2.42521        -0.049194     -0.118851     -0.013770
O       7.79048      5.92696     14.96583         0.907719     -0.555312      0.324448
O       7.79432      6.01203      6.71652         0.248040     -0.808209      0.338925
O       7.82101      6.04539     10.78302         0.325581     -0.700068      0.013176
O       7.75270      9.77753      2.42064         0.413670      0.011893     -0.125217
O       7.79852      9.75470     15.06370         0.139689     -0.232633     -0.381916
O       7.74608      9.76739      6.81978         0.202184     -0.075554     -0.218061
O       7.79533      9.70504     10.82590         0.029002     -0.121891     -0.524400
O      11.59648      1.98755      2.59812         1.110660     -0.171679     -0.191248
O      11.73549      1.93071     15.08174         0.552421     -0.016114     -0.379447
O      11.69967     13.64305      2.53091         1.056030     -0.182666      0.228061
O      11.81343     13.49464     14.93515        -0.827038      0.195189      0.138693
O      11.64686      1.84891      6.74021        -0.077371      0.452738     -0.166833
O      11.66329     13.67510      6.81812        -0.288886     -0.226651     -0.417659
O      11.77575      1.88124     10.79423        -1.110309      0.256933      0.316864
O      11.66611     13.52173     10.79768         0.713306      0.294449     -0.253949
O      11.58937      5.65246      2.56018         0.853722      0.145918     -0.182820
O      11.73555      5.75223     15.03938         0.119568     -0.026258     -0.102754
O      11.68666      5.81189      6.71612        -0.112821      0.022787     -0.100943
O      11.66851      5.83661     10.90414         0.335425     -0.442971      0.044076
O      11.68075      9.70099      2.67032         0.065364      0.264741     -0.435191
O      11.70538      9.82359     14.99157         0.402139      0.025021     -0.199217
O      11.69660      9.75147      6.47829         0.697148      0.028916      0.438680
O      11.69794      9.68472     10.80889         0.173170      0.341478     -0.012939
O       1.98766      3.85461      2.43844        -0.135117     -0.120772      0.039275
O       2.08551      3.91220     14.85249        -0.568603     -0.378022      0.366379
O       1.77650      0.02329      2.43836         0.546175      0.809291     -0.072116
O       1.92452      0.00816     14.81430         0.347387      0.740522      0.729186
O      13.62410      3.81544      2.60845        -0.193200     -0.185764     -0.070356
O      13.66640      3.81910     15.01829        -0.021685      0.234256     -0.413138
O      13.59536      0.03007      2.58337        -0.007742     -0.299842     -0.197754
O      13.62656     15.52628     14.88809         0.111112      0.829529      0.471399
O       1.81694      3.74940      6.71886         0.604494      0.543157     -0.283259
O       2.05940     15.54607      6.65387        -0.125206      0.611759     -0.031583
O      13.62598      3.93191      6.82119        -0.220145     -0.941394     -0.568298
O      13.55770     15.55985      6.89577         0.443044      0.299288     -0.587843
O       1.88715      3.86867     11.00071         0.125599     -0.220586     -0.520660
O       1.93066     15.49209     10.89303        -0.228430      0.915136     -0.200552
O      13.63873      3.84310     10.86636         0.100735      0.918130      0.247265
O      13.66868     15.50907     10.69503         0.030740      0.126795      0.091437
O       1.96481      7.67014      2.52044        -0.516027      0.688047     -0.171041
O       1.82496      7.75643     15.00319         0.786892     -0.185008     -0.071465
O      13.64259      7.73541      2.48811        -0.423358     -0.840247     -0.093174
O      13.63116      7.77458     15.09909         0.086170     -0.686099     -0.452889
O       2.01595      7.67617      6.79670         0.085059      0.333727     -0.239182
O      13.66689      7.76725      6.64014        -0.289302      0.361776     -0.002254
O       2.22849      7.65418     10.60902        -0.156053      1.062269      0.709437
O      13.63226      7.79677     10.83745         0.006551     -0.570863      0.329986
O       1.73241     11.64046      2.31965         0.838386      0.488067      0.624636
O       1.89972     11.72160     15.01648         0.072549     -0.424422      0.099381
O      13.70038     11.64280      2.48541        -0.248354      0.900170     -0.088844
O      13.81396     11.72529     15.07139        -0.028420     -1.053504     -0.110059
O       1.92909     11.65208      6.79402         0.327753      0.171311     -0.651827
O      13.61432     11.70682      6.64831        -0.368523     -0.522991     -0.002549
O       1.96787     11.64970     10.86427        -0.023886      0.086451     -0.342494
O      13.57064     11.58362     10.82141         0.428396      0.149474     -0.205631
O       5.93539      3.88018      2.35368        -0.086092     -0.080787      0.314826
O       5.95393      3.80829     14.98363        -0.239032     -0.013212     -0.102440
O       5.73370     15.60663      2.53411         0.174902     -0.169605     -0.425489
O       5.93351      0.05932     15.07628        -0.844510     -1.735996     -0.170761
O       5.94373      3.86928      6.72322        -0.103069      0.965603      0.432782
O       5.74149      0.06658      6.65492         0.037211     -0.718323     -0.359197
O       6.03812      3.85311     10.79277        -0.372559     -0.006539      0.238142
O       5.83333     15.58803     10.93663        -0.144937     -0.121227     -0.032399
O       5.81135      7.80796      2.31993         0.419381     -0.003393      0.056684
O       5.86066      7.71721     14.99271        -0.078769      1.197347     -0.033758
O       5.86544      7.78476      6.63660        -0.542620      0.201860      0.106889
O       5.66604      7.75773     10.93999        -0.153858      0.832925     -0.476161
O       5.74713     11.70106      2.58212        -0.003945      0.266652     -0.616962
O       5.85016     11.65367     14.95577         0.000904      1.080924     -0.105619
O       5.90211     11.74620      6.64773        -0.103021     -0.217140     -0.096949
O       5.96674     11.77039     10.95638        -0.467757     -0.437166     -0.738488
O       9.54406      3.80467      2.52265         0.243187      0.655676     -0.223703
O       9.75790      3.85142     14.86457        -0.058972      0.162863      0.258457
O       9.79813     15.52782      2.50505         0.060754      0.132552      0.411951
O       9.96834     15.50163     14.88039        -0.223173      0.325099      0.261626
O       9.64729      3.87151      6.68618         0.358230      0.600538     -0.041403
O       9.66574     15.59520      6.61051         0.255500      0.090588      0.515377
O       9.68331      3.89486     10.87544         0.370218     -0.177119      0.114378
O       9.81784     15.51388     10.65926         0.157926      1.419467      0.917363
O       9.81842      7.78382      2.38546        -0.370095     -0.395974      0.197772
O       9.91328      7.80581     15.04294        -0.542007     -0.111909      0.124368
O       9.73477      7.83173      6.67876         0.392805     -0.615520      0.671250
O       9.88944      7.82433     10.91202        -0.725839     -0.797587     -0.603294
O       9.76865     11.68048      2.74529        -0.047681     -0.063525     -0.903822
O       9.70625     11.66539     14.96036        -0.067011      0.653532     -0.148740
O       9.78338     11.72181      6.59623        -0.289610      0.026543      0.329930
O       9.70877     11.69532     10.93867         0.042660     -0.578171     -0.710010
