  # total energy = -7879.78163189 
CRSYTAL
PRIMVEC
    15.6080000000000005    0.0000000000000000    0.0000000000000000
     0.0000000000000000   15.6080000000000005    0.0000000000000000
     0.0000000000000000    0.0000000000000000   16.6239999999999988
PRESSURE
0.087556 -0.037272 0.746173 -0.355362 -0.126802 -0.014126
PRIMCOORD
320 1
Pb       3.96235      3.95141      4.15568        -0.305843      0.326518      0.032678
Pb       4.01386      4.03727      0.09003        -0.464808     -0.569784     -0.588445
Pb       3.88893      0.00439      4.05783        -0.414248      0.051586      0.171041
Pb       3.79837     15.57656     16.60008         0.504626      0.047532      0.478873
Pb       0.05993      3.85093      4.10501        -0.479580      0.306630      0.952189
Pb      15.50273      3.84944      0.00425         0.114412      0.032316     -0.160909
Pb      15.52937     15.59653      4.01558         0.842358     -0.488251      0.714652
Pb      15.52209     15.56008     16.60158         0.202301      0.122271     -0.211275
Pb       3.74656      3.85132      8.32279         0.215281     -0.556874      0.084490
Pb       3.89745      0.03718      8.32760        -0.708983      0.121675     -0.137845
Pb      15.56429      3.82808      8.25973         0.264182      0.023630      0.381577
Pb       0.09719     15.57213      8.20690        -0.325591      0.384729      0.916649
Pb       3.91623      3.93908     12.37556        -0.154057     -0.436924      0.262785
Pb       3.84948     15.47015     12.31845         0.083230      0.219612      0.144009
Pb      15.58012      3.78706     12.43817         0.182708      0.227477     -0.178629
Pb      15.53629      0.20044     12.53378         0.447288     -0.640810     -0.774864
Pb       3.83499      7.82237      4.28366        -0.092860     -0.208508     -0.946083
Pb       3.82796      7.74909      0.01339         0.114357      0.203033     -0.080573
Pb       0.16144      7.85189      4.18554        -0.341125      0.155325      0.048948
Pb       0.01634      7.75471      0.01874        -0.044076      0.280006     -0.299616
Pb       4.04677      7.73109      8.09935        -1.065102     -0.223437      1.316413
Pb      15.47410      7.78299      8.44143         0.659312     -0.377186     -0.238856
Pb       3.90862      7.85183     12.45772        -0.269988     -0.136292     -0.211514
Pb       0.00625      7.87441     12.53698        -0.098470      0.525514      0.125445
Pb       3.86246     11.67952      4.09134        -0.123320     -0.175227      0.483490
Pb       3.91006     11.60376     16.47102        -0.211266      0.665531      0.844378
Pb      15.59230     11.65451      4.10229        -0.181184      0.237685     -0.157712
Pb      15.56646     11.76964     16.55181        -0.297628     -0.228078      0.561612
Pb       3.82727     11.64712      8.14951         0.517544      0.123650      0.070846
Pb      15.56222     11.64070      8.32402         0.203182      0.069632     -0.222316
Pb       4.00823     11.69286     12.36024        -0.421449     -0.007533      0.202393
Pb       0.12568     11.57275     12.32915        -0.785521      0.207789      0.676849
Pb       7.85658      3.80670      4.17874        -0.214805      0.030866     -0.198153
Pb       7.86431      3.98040      0.08429        -0.793227     -0.692517     -0.647222
Pb       7.81910     15.49585      4.02040        -0.673917     -0.192371      0.244912
Pb       7.88656      0.12439      0.05230        -0.604922     -0.738701     -0.040902
Pb       7.64845      3.96243      8.29705        -0.005591     -0.192923      0.415848
Pb       7.82276     15.52985      8.33697         0.318197      0.231798      0.097422
Pb       7.70802      3.84436     12.40415        -0.050217     -0.246291      0.590805
Pb       7.71369     15.56796     12.50670        -0.177048      0.302983      0.351261
Pb       7.73635      7.84230      4.16398         0.045094     -0.308481     -0.271980
Pb       7.87277      7.94829     16.60536        -0.614215     -0.504229     -0.266163
Pb       7.79126      7.77135      8.25755         0.186096      0.217894      0.559678
Pb       7.87864      7.62989     12.31649        -0.785977      0.719622      0.945522
Pb       7.94134     11.67483      4.26960        -0.628411      0.246080     -0.352942
Pb       7.72373     11.66052      0.03515        -0.080246      0.472685     -0.459164
Pb       7.65289     11.73781      8.13933         0.605118     -0.862815      0.485267
Pb       7.72479     11.54354     12.41261        -0.175624      0.329397      0.312271
Pb      11.73032      3.94640      4.25426        -0.109208     -0.340060     -0.168749
Pb      11.77160      4.03930      0.04625        -0.005378     -0.907789      0.625022
Pb      11.51726     15.53378      4.11334         1.129883     -0.044739      0.946649
Pb      11.58895     15.55621      0.06425         0.330811     -0.085405     -0.386287
Pb      11.77190      3.99709      8.30715        -0.300539      0.189432      0.582349
Pb      11.66481      0.08606      8.23112        -0.091621     -0.817042      0.781857
Pb      11.83920      3.83668     12.54285        -1.174335      0.082730      0.106078
Pb      11.87271     15.54741     12.42583        -0.993087      0.148118     -0.041536
Pb      11.70976      7.53985      4.03499        -0.156551      0.562818      0.268499
Pb      11.43854      7.77427     16.60978         1.346286      0.215472      0.665960
Pb      11.59633      7.92192      8.18768        -0.316439     -0.756195      1.037399
Pb      11.60412      7.81992     12.57963        -0.390358      0.524645     -0.192740
Pb      11.58544     11.43774      4.22352         0.721358      0.335324     -0.437944
Pb      11.77409     11.76206     16.55000        -0.160604     -0.503733      0.015460
Pb      11.97028     11.85191      8.33547        -1.218929     -0.130799      0.230470
Pb      11.65586     11.81414     12.41654         0.234242     -0.784556      0.513298
Ti       1.98582      2.10256      2.15989        -0.335268     -0.656702     -0.168653
Ti       1.94180      2.01121     14.65020        -0.062289      0.091117     -0.026070
Ti       1.95410     13.73665      2.14060        -0.499577     -0.398911      0.226715
Ti       1.90917     13.66039     14.68559         0.105407     -0.463615     -0.175177
Ti      13.66327      1.88852      2.37561        -0.412669      1.203687     -0.946142
Ti      13.59449      1.88112     14.63474         0.198984      0.414218      0.405709
Ti      13.62808     13.64082      2.17701         0.195265     -1.063901      0.778382
Ti      13.62192     13.62502     14.56599         0.176588     -0.449489      0.719766
Ti       1.89711      1.82141      6.25295         0.424265      0.450401      0.764668
Ti       1.93083     13.55108      6.47487         0.093731      0.238448     -0.855200
Ti      13.54854      1.97675      6.44781         0.487514     -0.133431     -0.310063
Ti      13.64209     13.72427      6.44054         0.118678     -0.278614     -0.787065
Ti       1.97904      1.87724     10.55666        -0.482826     -0.157025     -0.653337
Ti       1.91602     13.54002     10.48212        -0.170836      1.298436     -0.233637
Ti      13.58532      1.98755     10.42015         0.522272     -0.523520      0.531062
Ti      13.65457     13.68440     10.57759         0.737122     -0.011124     -0.395274
Ti       1.81237      5.89218      2.17728         0.779359      0.150323      0.736446
Ti       1.98803      5.89231     14.52328        -0.271563     -0.049366     -0.039892
Ti      13.62703      5.79143      2.34856        -0.243245     -0.098939     -0.642086
Ti      13.73737      5.83918     14.65890        -0.107011     -0.103178      0.889180
Ti       1.87321      5.73741      6.48831        -0.284039      0.511072     -0.436593
Ti      13.63361      5.86855      6.48830         0.367688     -0.212301     -0.534576
Ti       1.67335      5.89084     10.59380         0.970223     -0.438358     -0.353107
Ti      13.41177      6.01281     10.70376         1.337389     -0.713235     -1.933378
Ti       1.97058      9.78166      2.16066        -0.171085     -0.808359     -0.127380
Ti       1.88723      9.78634     14.76315        -0.321025     -0.077765     -0.060042
Ti      13.64274      9.67571      2.06095        -0.196626      0.750995      0.465103
Ti      13.63682      9.66929     14.81075         0.241782      0.804684     -0.704351
Ti       1.92675      9.62020      6.42612        -0.661277     -0.078024     -0.004975
Ti      13.66918      9.71562      6.42128         0.035524      0.068124     -0.358684
Ti       1.96726      9.70077     10.43197        -0.537802     -0.075307     -0.243704
Ti      13.63147      9.76807     10.41026        -0.353559      0.741119      1.806655
Ti       5.84469      1.92332      2.25978         0.098872     -0.379773     -0.771890
Ti       5.70967      1.80090     14.85339         1.592486      0.641279     -1.468314
Ti       5.75822     13.56898      2.26932         0.868469      0.354462     -0.472819
Ti       5.79365     13.56337     14.53005         0.481594      0.221824      1.035675
Ti       5.80628      1.86363      6.29060        -0.559161      1.161015      1.175485
Ti       5.88274     13.76023      6.26913        -0.824156     -2.352881     -1.266534
Ti       5.83694      1.88117     10.44119        -0.182390      0.342243      0.115373
Ti       5.85714     13.61025     10.28657        -0.444340     -0.012709      3.119527
Ti       5.67940      5.84444      2.19002         0.294876      0.738224      0.145416
Ti       5.80511      5.84783     14.70150         0.583421     -0.603813      0.412783
Ti       5.84771      5.73564      6.39626        -0.241581     -0.715945     -1.229593
Ti       5.60500      5.83408     10.43820         1.197474     -0.199430     -0.035919
Ti       5.84237      9.75071      2.17931        -0.413920     -0.441122      0.698233
Ti       5.78253      9.70095     14.64572         0.784750      0.109714     -0.514450
Ti       5.87982      9.67535      6.26638         0.282274      0.984932      0.955626
Ti       5.80041      9.71986     10.42802         0.699017     -0.307291      0.398697
Ti       9.78139      1.89233      2.33877        -0.014444      0.847365     -0.955043
Ti       9.81633      1.87722     14.74886        -1.014493      0.062570     -0.099266
Ti       9.75510     13.58722      2.20508        -0.541585     -0.678179      0.499496
Ti       9.69375     13.59753     14.69181        -0.103990      0.270934      0.758950
Ti       9.60815      2.00814      6.55018         0.965863     -0.038722     -1.804759
Ti       9.71807     13.65635      6.32838         0.185554     -0.332440      0.379257
Ti       9.72099      1.89725     10.58310         0.034466     -0.039602      0.628203
Ti       9.61138     13.68181     10.62540         0.487744      0.159305     -0.850338
Ti       9.51148      5.77835      2.17394         1.943046     -0.038034      0.004144
Ti       9.77042      5.75229     14.81236        -1.063458     -0.297596     -1.277242
Ti       9.72543      5.83119      6.37250        -0.372018      0.361027     -0.333965
Ti       9.61342      5.83660     10.57009         0.522137     -0.037424     -0.020668
Ti       9.75141      9.67028      2.25111         0.700091      0.684776     -0.317697
Ti       9.70510      9.76044     14.66348         0.504860      0.263285     -0.275354
Ti       9.74550      9.74766      6.46494        -0.456673      0.121709     -0.618602
Ti       9.70771      9.80116     10.62208         0.016854     -0.735986     -0.576109
O       1.90563      2.18555      0.36982        -0.010743     -0.299143      0.454848
O       1.90197      1.78014     12.82029        -0.074032      0.214198      0.914089
O       2.00868     13.66061      0.37886         0.297414      0.014883      0.144739
O       1.90975     13.62545     12.90947        -0.065325      0.119049     -0.358006
O      13.64554      1.82575      0.60437         0.222546      0.297747     -0.408013
O      13.52690      1.98708     12.83126         0.427844     -0.336417      0.096079
O      13.76473     13.83046      0.43191        -0.618663     -0.136688     -0.100474
O      13.65683     13.53860     12.79308         0.130735      0.452736     -0.359072
O       2.01666      1.80610      4.49682        -0.140910      0.435217      0.203137
O       1.67862     13.44095      4.72923         0.358244      0.492394     -0.161086
O      13.59411      2.23687      4.70707         0.133486     -0.945042     -0.701961
O      13.85380     13.58796      4.69189        -0.180371      0.322086     -0.131792
O       2.06047      1.81913      8.74343        -0.264928      0.044729      0.468788
O       2.09045     13.58403      8.68983        -0.452199     -0.214975     -0.166388
O      13.67790      1.91958      8.66293        -0.316548      0.327470     -0.249283
O      13.47247     13.68751      8.77729         0.262924     -0.320285     -0.385915
O       1.78148      5.72042      0.42481         0.231120      0.388331     -0.585650
O       2.03059      6.04256     12.72344         0.109194     -0.475426      0.626736
O      13.79022      5.61780      0.58307        -0.204563      0.328430     -0.697821
O      13.45215      5.89185     12.92259         0.108405     -0.063303     -0.612278
O       2.01326      5.89310      4.71673        -0.270087     -0.052758      0.015773
O      13.44788      5.86288      4.68195         0.338284      0.061714     -0.189609
O       1.53905      5.87674      8.78179         0.398247     -0.195726      0.771914
O      13.57718      5.81001      8.81879        -0.156980      0.365640      1.179794
O       2.04516      9.66721      0.38579        -0.094784     -0.007256      0.141952
O       1.92177      9.90304     12.98367         0.025465     -0.265063     -0.622328
O      13.70111      9.82586      0.30103        -0.098070     -0.330686      0.572712
O      13.83555      9.80277     13.03704        -0.417562     -0.366911      0.006597
O       1.89890      9.56992      4.61287         0.203522      0.121130      0.100830
O      13.53724      9.66218      4.68570        -0.076876      0.028017     -0.933090
O       1.87405      9.58452      8.65428         0.127086      0.636802      0.005005
O      13.62660      9.74489      8.64378        -0.014849     -0.050845     -0.135283
O       5.84245      1.75785      0.47325        -0.352201      0.365924      0.243348
O       5.83354      1.82699     13.04417        -0.298281      0.130769      0.376231
O       5.63165     13.44251      0.50614         0.074465      0.117088      0.050180
O       5.86656     13.69245     12.76101        -0.352721     -0.329520      0.407626
O       5.88820      1.94403      4.52323        -0.129076     -0.028814     -0.212543
O       6.02049     13.54640      4.46631        -0.513868      0.528721      0.487664
O       5.79253      1.87499      8.65446         0.097567      0.168255      0.503086
O       5.99037     13.56446      8.57388        -0.445411      0.172769     -1.318214
O       5.51569      5.84059      0.38765         0.712557      0.215596      0.386948
O       5.60839      5.77929     12.93461         0.189898      0.251677     -0.740627
O       5.77198      5.76117      4.53936        -0.063837      0.021389      0.535651
O       5.78817      5.56241      8.66739         0.187856      0.607830     -0.088256
O       5.88501      9.90791      0.40867         0.043227     -0.462368     -0.192970
O       5.66097      9.76429     12.84261         0.394677     -0.257131      0.002631
O       5.90298      9.41716      4.51807         0.079723      0.440314     -0.349671
O       5.94770      9.81615      8.68564        -0.541713     -0.501890     -0.507896
O       9.80554      1.59901      0.56592         0.205168      0.440468     -0.129437
O       9.75670      1.89976     13.01166         0.044845      0.279512     -0.844577
O       9.89594     13.61171      0.46487        -0.051384      0.200727     -1.014008
O       9.77575     13.54211     12.96455        -0.238950      0.216012     -1.168729
O       9.70990      2.23531      4.69260        -0.341411     -0.679398      0.468181
O       9.66480     13.56403      4.54150         0.128299     -0.014992      0.328223
O       9.60283      1.65258      8.82687         0.200613      0.516791     -0.769586
O       9.56885     13.81394      8.81783         0.331404     -0.297840     -0.082121
O       9.73373      5.86591      0.34942        -0.407235     -0.079329      0.618762
O       9.81754      5.80175     13.00893        -0.243706      0.049234      0.429835
O       9.67584      5.74898      4.56421        -0.181723     -0.107674      0.090484
O       9.61890      6.10675      8.81525         0.111214     -1.018418      0.185107
O       9.69335      9.75642      0.47373         0.095047     -0.359569     -0.256735
O       9.68962      9.69927     12.88343         0.074841      0.095047      0.071287
O       9.72560      9.78398      4.63245         0.126931     -0.188241     -0.412633
O       9.49496      9.47104      8.87497         0.741100      0.791435     -0.571548
O       3.85376      1.99341      2.52751         0.736809      0.271503     -0.020631
O       3.81397      1.94349     15.08226         0.066036     -0.222401     -0.083822
O       3.79497     13.54272      2.76970         0.395578      0.354648     -0.588425
O       3.85793     13.19820     14.77730         0.583618      1.247276      0.018855
O       0.08579      2.03189      2.58029        -1.001955     -0.766083     -0.018264
O      15.58096      1.86073     14.94357         0.375804      0.301425     -0.144856
O       0.07982     13.73172      2.44059        -0.832744     -0.023813      0.317897
O       0.00256     13.66420     15.05767        -0.235145      0.423965     -0.421428
O       3.87280      1.88319      6.70142         0.728533     -0.204836     -0.571041
O       3.98141     13.52467      6.56928        -0.647828      0.109290      0.155921
O       0.01109      1.85508      6.55491        -0.130660      0.061389      0.333785
O      15.52917     13.59960      6.94778         0.511429     -0.025903     -0.466660
O       3.86176      1.89180     10.86693         0.785682      0.170436     -0.071403
O       3.86886     13.57393     10.70274         1.136620      0.271692      0.190891
O      15.60708      2.07454     10.77108        -0.756603     -0.570495      0.382434
O      15.59631     13.69519     10.72109         0.272937     -0.571856     -0.047771
O       3.79158      5.77246      2.54181         0.531321     -0.156521     -0.101265
O       3.84844      6.02217     14.96207        -0.372113     -0.225309      0.246833
O      15.57145      5.93232      2.73315        -0.272140      0.177015     -0.394588
O       0.03978      5.85194     14.85036        -0.812718     -0.085359      0.064481
O       3.75707      5.68411      6.84244         0.939347      0.666691     -0.290374
O      15.52157      5.59118      6.68277        -0.280580      0.702435     -0.246151
O       3.79094      5.94778     10.54632        -0.270412     -0.383619      0.648646
O      15.45761      5.85944     11.08358         0.014323      0.016440     -0.446543
O       3.88622      9.66582      2.58249         0.436048      0.452435     -0.107397
O       3.94174      9.83456     14.93711        -0.538415     -0.557849      0.185350
O      15.55114      9.56668      2.45231         0.297579      0.102356      0.205293
O       0.01871      9.68479     15.11052        -0.347021      0.086125      0.040393
O       3.90787      9.54068      6.59386         0.036985      0.378857     -0.058912
O      15.58185      9.80115      6.56738         0.000436     -0.178648      0.525196
O       3.82415      9.72064     10.73061         1.127156     -0.070438      0.022706
O      15.57821      9.72813     10.80288        -0.120736      0.109849     -0.298318
O       7.84714      1.81543      2.50368        -0.822867      0.059238      0.370018
O       7.72473      1.80122     15.14935         0.410563      0.253204     -0.240137
O       7.79189     13.70923      2.31724        -0.142705     -0.075812      0.566510
O       7.80707     13.73201     15.02073         0.087849     -0.569613     -0.127045
O       7.75954      2.03326      6.80223        -0.229344     -0.404946     -0.527678
O       7.72179     13.45067      6.53379         1.511103      0.652333      0.372384
O       7.75054      1.89803     10.89463        -0.150693      0.211295     -0.124617
O       7.73594     13.69210     10.85267        -0.496064     -0.317532     -0.247696
O       7.69399      5.88057      2.36057         0.070601      0.064860      0.300347
O       7.71377      5.77152     14.98277         0.778817      0.187478      0.313932
O       7.74735      5.79069      6.66273         0.046644     -0.528317     -0.012298
O       7.70344      5.73394     10.96323         0.738368      0.311435     -0.621049
O       7.85225      9.63713      2.46829        -0.788725     -0.078906      0.387552
O       7.83685      9.69677     15.02698         0.109410      0.144872     -0.073878
O       7.77999      9.63005      6.69893        -0.614141      0.010188     -0.525306
O       7.72541      9.67124     10.95553        -0.156215      0.294615     -0.124252
O      11.70240      1.99203      2.66084         0.010385     -0.268434      0.081290
O      11.75924      2.01795     15.02307        -0.390388     -0.217877      0.197625
O      11.71478     13.70308      2.50034         0.291912     -0.016304      0.216230
O      11.75819     13.62468     14.94275        -0.004368      0.109483      0.174460
O      11.64117      1.82683      6.75276        -0.219591      0.956393     -0.054056
O      11.65092     13.66675      6.62948        -0.101522     -0.211885      0.133425
O      11.63016      1.71183     10.74105         0.341010      0.513649      0.026046
O      11.73755     13.56040     10.90444        -0.785113      0.692182     -0.239253
O      11.60321      5.60915      2.55628         0.664621      0.534053     -0.100710
O      11.65672      5.66515     15.12321         0.732207      0.710420     -0.466538
O      11.58819      5.91451      6.71482         0.565314     -0.208451      0.262235
O      11.61094      6.01652     10.93477        -0.116760     -0.661831     -0.215547
O      11.74425      9.95575      2.36692        -1.026811     -0.491130      0.613593
O      11.74024      9.72729     15.05544        -0.646724     -0.163089     -0.137793
O      11.60922      9.73828      6.74670         0.614874     -0.250797     -0.062721
O      11.63645      9.81304     10.86601         0.581648     -0.116166     -0.348554
O       1.84324      4.00701      2.60890         0.503572     -0.979027     -0.194997
O       2.02876      3.97592     14.61473        -0.330738     -0.897873      0.432269
O       2.01980      0.02042      2.38408         0.105696     -0.000290      0.167002
O       2.04191     15.59148     15.10452        -0.374095     -0.302144     -0.770319
O      13.76086      3.91431      2.62777        -0.220936     -0.601035      0.147360
O      13.72232      3.87523     14.92961        -0.088138      0.212693      0.252271
O      13.63576      0.01563      2.67988         0.061363     -0.264625      0.033703
O      13.66083     15.60062     14.79398         0.045055     -0.009363      0.254035
O       1.92112      3.80211      6.79437        -0.159866     -0.469588     -0.514279
O       2.05166     15.50113      6.71923        -0.529406      0.319609     -0.288251
O      13.52883      3.92138      6.82198        -0.216610     -0.457938     -0.082526
O      13.60130      0.03665      6.74475         0.333365     -0.648344     -0.447476
O       1.87162      3.88755     10.87823         0.298694      0.794276     -0.037832
O       1.96453     15.52427     10.75457        -0.105026      0.429651      0.303900
O      13.39657      3.84440     10.85567         0.507635      0.632344     -0.248453
O      13.75432      0.05121     10.76310        -0.472683     -0.437879      0.625832
O       2.02203      7.79799      2.46176        -0.435710     -0.649948      0.341982
O       1.83696      7.82211     14.93062         0.601626     -0.225466      0.294529
O      13.33204      7.80088      2.32980         0.664485     -0.630077      0.443936
O      13.66706      7.73716     15.15748        -0.217968     -0.684599     -0.475675
O       1.78022      7.73162      6.79303         0.176641     -0.061338     -0.407605
O      13.75194      7.72872      6.80192        -0.490608      0.513290     -0.258484
O       1.86349      7.90029     10.96303        -0.173313     -1.084960     -0.430690
O      13.60654      7.90013     10.89371        -0.060605     -0.717288     -0.091045
O       1.91871     11.59774      2.48323        -0.125168      0.884250      0.252658
O       1.77993     11.67532     15.19151         0.598276      0.181538     -0.894862
O      13.70515     11.71402      2.44399         0.241981      0.608999      0.130471
O      13.67163     11.75778     15.04728         0.151304     -0.131175     -0.086610
O       1.94140     11.62620      6.71616         0.136709     -0.530273      0.326006
O      13.59184     11.62927      6.69557         0.076877      0.931111      0.403217
O       1.96760     11.65970     10.75346        -0.307051     -0.213791     -0.035276
O      13.70122     11.67077     10.72826        -0.184839     -0.100827     -0.182807
O       5.91676      3.85330      2.39957        -0.516937      0.041010      0.314891
O       5.73820      3.89933     15.11638        -0.074724     -0.185307     -0.133054
O       5.70589     15.54789      2.56524         0.153509      0.158681     -0.013054
O       5.75581     15.42450     15.02481        -0.810099      0.433254      0.026765
O       5.80825      3.80750      6.61415         0.021124     -0.216604      0.029644
O       5.95505     15.54284      6.54679        -0.211720      1.372558      0.142283
O       5.81106      3.86504     10.84516        -0.294522     -0.220746     -0.021421
O       5.83577     15.59918     10.65837        -0.239803     -0.694343      0.082225
O       5.75661      7.76484      2.37628         0.225021     -0.108770      0.189077
O       5.94747      7.81776     15.00934        -0.625598      0.098247      0.117722
O       5.81344      7.57169      6.65638         0.003294      1.612418     -0.130167
O       5.90142      7.73144     10.61012        -0.511946      0.197871      0.426284
O       5.83744     11.64272      2.60009         0.040543     -0.502732      0.079242
O       6.07147     11.64173     14.83635        -0.304587      0.225275      0.332122
O       5.87331     11.55052      6.47361        -0.310597     -0.430607      0.191937
O       5.84924     11.67540     10.69891         0.024491      0.237307      0.112146
O       9.61484      3.85153      2.27386        -0.340562     -0.050074      0.589759
O       9.61007      3.74955     15.21422         0.737760      0.943951     -0.264064
O       9.76401     15.54594      2.72028         0.060520      0.234105     -0.524814
O       9.87522     15.55223     14.96858        -0.072291      0.135524      0.487721
O       9.75721      3.92419      6.85800        -0.135355     -0.154605      0.122478
O       9.67452     15.58633      6.52041        -0.444048     -0.226299      0.347530
O       9.75795      3.87861     10.90857         0.073562     -0.276111     -0.552612
O       9.61815     15.53758     11.07385         0.569717      0.353279     -0.359262
O       9.87641      7.70941      2.46514        -0.418875      0.550371      0.017666
O       9.84217      7.76469     15.01172        -0.712589     -0.119471     -0.257348
O       9.61273      7.77167      6.66843         0.439493     -0.294911     -0.177214
O       9.75618      7.80446     10.95987        -0.407364     -0.642370      0.379676
O       9.67758     11.69137      2.59072         0.171231     -0.161215     -0.063447
O       9.86514     11.64192     14.92370        -0.483078      0.186573      0.489830
O       9.69380     11.63356      6.69152        -0.015424      0.748622      0.048683
O       9.63146     11.72159     10.95854         0.149266     -0.090108     -0.546637
