  # total energy = -7883.49357316 
CRSYTAL
PRIMVEC
    15.6080000000000005    0.0000000000000000    0.0000000000000000
     0.0000000000000000   15.6080000000000005    0.0000000000000000
     0.0000000000000000    0.0000000000000000   16.6239999999999988
PRESSURE
-0.682665 -0.761193 -0.765176 -0.257569 0.428201 0.011153
PRIMCOORD
320 1
Pb       3.91829      3.80088      4.11438        -0.027972      0.331789      0.551890
Pb       3.82978      3.82340      0.05111         0.304504      0.548900     -0.519297
Pb       3.91453     15.57068      4.16577        -0.046046      0.066884      0.424845
Pb       3.85359     15.52592      0.01345         0.495378      0.119373     -0.100705
Pb      15.46119      3.83613      4.10804         1.050532      0.150122      0.608040
Pb      15.56759      3.86526     16.56325         0.118753      0.076959      0.212225
Pb       0.06525     15.59800      4.12870         0.213566     -0.145438     -0.024505
Pb       0.07953     15.58447      0.00413        -0.801266     -0.502192     -0.043856
Pb       3.92906      3.93000      8.33167        -0.031947      0.131095     -0.276679
Pb       3.95453      0.15966      8.40799         0.093528     -0.320693     -0.351447
Pb      15.58506      3.92111      8.23083         0.697868      0.155591      0.007235
Pb       0.08659      0.02345      8.27497        -0.139548      0.048479      0.193050
Pb       3.76187      4.01031     12.52916         0.848405     -0.247523     -0.589426
Pb       3.81692     15.47420     12.40270         0.129900      0.764949     -0.005068
Pb      15.55636      3.80114     12.32747         0.207817      0.380661      0.103176
Pb      15.59564     15.59464     12.42685         0.135230     -0.053524      0.138578
Pb       3.77247      7.81573      4.10515         0.055353     -0.163641      0.322878
Pb       3.77092      7.74329     16.56159         0.729867     -0.215765      0.173371
Pb      15.59898      7.86803      4.01605         0.078305     -0.212638      0.528934
Pb      15.59695      7.79745     16.60114        -0.085560     -0.126348      0.554954
Pb       3.99554      7.81230      8.29087         0.029748     -0.502696     -0.337727
Pb      15.53631      7.81296      8.37134         0.415315     -0.226253     -0.735121
Pb       3.82035      7.85543     12.54719         0.328115     -0.235130     -0.196174
Pb      15.51173      7.74658     12.44779         0.201125     -0.057207      0.060156
Pb       3.93461     11.71448      4.15832        -0.182826     -0.527719      0.346281
Pb       3.87040     11.67755     16.51841         0.379592     -0.140315      0.145439
Pb       0.00893     11.81909      4.12442         0.442666     -0.372844      0.375124
Pb       0.05921     11.79932      0.08998        -0.596813     -0.365497     -0.660726
Pb       3.87317     11.71576      8.28838        -0.028437      0.290881     -0.155871
Pb      15.44545     11.70336      8.23445         0.471673      0.131266      0.060113
Pb       3.78654     11.82241     12.47880         0.120189     -0.281664     -0.125864
Pb      15.55022     11.53978     12.37868         0.002547      0.199967      0.581832
Pb       7.71794      3.83574      4.09314         0.329771      0.209606      0.315699
Pb       7.60561      3.71640     16.59297         0.860070      0.495076     -0.070970
Pb       7.69664     15.56868      4.07663         0.733862     -0.098920      0.464437
Pb       7.76052     15.49342      0.03085         0.792049      0.334735     -0.323517
Pb       7.76355      3.90442      8.38309        -0.622376     -0.017426     -0.643145
Pb       7.85106     15.53611      8.44026        -0.794495      0.010333     -0.411432
Pb       7.79195      3.93980     12.50884        -0.799657      0.195819     -0.286989
Pb       7.89772      0.08502     12.52300        -0.259873     -0.033641     -0.056833
Pb       7.65467      7.79256      3.98092         0.781620      0.036075      0.271149
Pb       7.83143      7.83969     16.53195         0.002343      0.068277      0.159695
Pb       7.89775      7.83578      8.39078        -0.434121     -0.105120     -0.448459
Pb       7.89759      7.72325     12.52577        -0.496062      0.122108     -0.071712
Pb       7.75384     11.78191      4.04850         0.062178     -0.267698     -0.259625
Pb       7.77867     11.58645     16.56976         0.386111     -0.214438      0.040346
Pb       7.63714     11.66304      8.31447         0.411496      0.406259      0.414244
Pb       7.76689     11.61019     12.49572         0.162173      0.133688      0.168450
Pb      11.72439      3.99195      4.25855        -0.500328     -0.183109     -0.504812
Pb      11.77235      3.90949     16.59503        -0.915534      0.058142     -0.039746
Pb      11.72587      0.17565      4.21165        -0.502676     -0.527758     -0.339135
Pb      11.67303     15.56367     16.61474        -0.235247      0.007863     -0.320179
Pb      11.64023      3.91916      8.29407         0.103866     -0.250936     -0.099253
Pb      11.48847     15.49267      8.20843         1.079828     -0.025026      1.185634
Pb      11.67393      3.80247     12.44124         0.162965      0.368215      0.136880
Pb      11.76810     15.49847     12.40558        -0.122947     -0.001093      0.131584
Pb      11.76420      7.66526      3.99141        -0.406336      0.458707      0.072050
Pb      11.65395      7.75087     16.59920        -0.083248      0.221780      0.256869
Pb      11.66504      7.84129      8.10786         0.131754      0.470077      0.128720
Pb      11.65599      7.75762     12.50811         0.041174      0.131293     -0.171205
Pb      11.63590     11.76410      4.30307        -0.055047      0.034853     -0.171628
Pb      11.89231     11.76519     16.58804        -0.360083     -0.296031      0.353372
Pb      11.72450     11.70458      8.28396        -0.412855     -0.302502     -0.002298
Pb      11.58109     11.64100     12.32982         0.320321      0.034012      0.617069
Ti       1.97922      1.97386      2.21834         0.348319     -0.573645      1.276182
Ti       1.88941      1.90022     14.78101         0.472487      0.003856     -1.377913
Ti       2.08110     13.58388      2.20757        -0.580714      0.709127      0.809907
Ti       1.97081     13.65129     14.66496        -0.566797     -1.221509     -0.403522
Ti      13.66545      1.90618      2.22634        -0.243951     -0.020843     -0.418455
Ti      13.53745      1.94770     14.68564         0.569772     -0.960281      0.641890
Ti      13.71264     13.70183      2.26274        -0.352857     -0.460950     -1.006633
Ti      13.66997     13.65779     14.60235         0.497790     -0.223719      0.626383
Ti       1.90302      1.91443      6.33374         0.957596      0.595839      0.479802
Ti       1.99468     13.64763      6.40940         0.097722     -0.329906      0.529888
Ti      13.57681      1.93034      6.36272         0.670099      0.203677      0.334303
Ti      13.65184     13.74158      6.34699         0.185436     -0.474207      0.400318
Ti       1.95291      1.88709     10.57068         0.867933      0.761539     -0.646875
Ti       1.82998     13.56464     10.49019         1.539332      0.638003     -0.275817
Ti      13.67704      1.86507     10.42203        -0.312669      0.242779     -0.758233
Ti      13.69386     13.57171     10.53028        -1.266891      0.236369     -1.451644
Ti       1.92977      5.81440      2.18447         0.278852     -0.289108      0.206475
Ti       1.91875      5.76294     14.66451         1.458840      0.693748      0.452017
Ti      13.66101      5.77390      2.19900         0.076106      1.228557     -0.318601
Ti      13.69931      5.84539     14.77504        -0.486966      0.601215     -0.659676
Ti       1.99507      5.81742      6.31109         0.736223     -0.035146     -0.273917
Ti      13.71469      5.80077      6.26727         0.397101      0.548890     -0.080550
Ti       1.92630      5.83780     10.50803         0.378683     -0.719884     -1.363736
Ti      13.55379      5.81968     10.45057         1.497539     -0.379525      0.508336
Ti       1.87329      9.72904      2.21272         0.288969      0.782225      0.493967
Ti       1.91817      9.71585     14.74884        -0.314759      0.070925     -0.014224
Ti      13.58649      9.86698      2.30065         0.563825     -0.603816     -1.351681
Ti      13.70383      9.75768     14.69601         0.260899     -0.317815      0.497029
Ti       1.96128      9.66719      6.43677        -0.010945      0.496214     -0.813746
Ti      13.67804      9.74632      6.30343        -0.533957     -0.251944      0.262477
Ti       1.90780      9.69636     10.49471        -0.395665     -0.009472     -0.351800
Ti      13.54893      9.68988     10.55835         0.117979      0.139159     -0.013237
Ti       5.84026      1.86284      2.23296         0.178557      0.586386      1.068981
Ti       5.80640      1.91334     14.64111         0.511253      0.354750     -0.887165
Ti       5.83988     13.66448      2.12500         0.445051     -1.719830      0.152960
Ti       5.90883     13.64490     14.65959        -0.234874     -0.123698     -0.366772
Ti       5.82123      1.88863      6.44242         0.221288      0.746730      1.058190
Ti       5.83489     13.65883      6.46456        -0.085327      0.706853      0.611321
Ti       5.86441      2.02499     10.56645        -0.575886      0.457576      0.042131
Ti       5.86481     13.71980     10.68110         0.149124     -0.416395     -1.938555
Ti       5.82269      5.77330      2.14070         0.362157      0.203260      0.140975
Ti       5.89212      5.84537     14.69587        -0.414190     -0.349340     -0.996510
Ti       5.99497      5.91349      6.34926        -0.777818     -0.878770      0.671283
Ti       5.82016      5.95208     10.41077        -0.474967     -1.124692      0.915193
Ti       5.77398      9.69789      2.20243         0.591409      0.846787     -1.588430
Ti       5.83079      9.70600     14.75492         0.715438     -0.353611     -0.269261
Ti       5.86383      9.78401      6.37824        -0.124065     -0.785150     -0.796261
Ti       5.76433      9.83270     10.64726         0.082177     -0.881170     -1.028322
Ti       9.77095      1.95018      2.28296        -0.618589     -0.342988     -1.279126
Ti       9.69385      1.94718     14.62795        -0.144077     -0.517015      1.594114
Ti       9.85133     13.64648      2.20433        -0.816462      0.467406     -1.223238
Ti       9.80065     13.60900     14.67772        -0.121924      0.279604      0.456710
Ti       9.72156      1.91018      6.46070        -1.421047      0.314868     -0.287522
Ti       9.71260     13.56968      6.41995        -0.824181     -0.670828     -0.370400
Ti       9.75443      1.97123     10.52792        -0.179132     -0.649604     -0.215476
Ti       9.70510     13.59785     10.65661         0.333303      0.163903     -0.873134
Ti       9.71224      5.81715      2.14950        -0.278609     -0.133901     -0.165388
Ti       9.75530      5.83155     14.67412        -0.404240     -0.354380      0.131106
Ti       9.84995      5.79968      6.37793        -1.693786      0.269887      0.622330
Ti       9.73132      5.83885     10.48557        -0.603632      0.212071      0.292988
Ti       9.80477      9.84655      2.19659        -0.936800     -1.151691     -1.432605
Ti       9.91744      9.74962     14.66772        -1.521994      0.140286     -0.243942
Ti       9.63932      9.71565      6.27843         1.094354      0.703360      0.289305
Ti       9.61457      9.72478     10.49123         0.789231      0.179982      0.579707
O       2.02886      1.94413      0.46383        -0.334136     -0.058381     -1.036236
O       1.86260      1.73977     12.96777         0.041941      0.368625      0.959685
O       2.18944     13.63975      0.44886        -0.634533     -0.438128     -0.432457
O       1.95385     13.67925     12.86693        -0.033044     -0.023676     -0.070047
O      13.67601      1.87072      0.44092        -0.145369      0.267520      0.262363
O      13.65824      1.97266     12.94441         0.255197     -0.026420     -0.489094
O      13.62201     13.64652      0.40786         0.196465     -0.052359      1.369301
O      13.64061     13.61353     12.82298         0.319578      0.119775     -0.094502
O       2.08350      1.97694      4.57188        -0.366383     -0.405656     -0.435632
O       1.93667     13.53890      4.63629        -0.069489      0.807720     -0.481046
O      13.58350      1.97073      4.56183         0.093355     -0.180160     -0.562096
O      13.77504     13.63235      4.53604        -0.259717      0.067345      0.540132
O       1.89880      1.96535      8.77431         0.021761     -0.332006      0.155486
O       1.96537     13.65859      8.72681        -0.125066     -0.173734      0.091180
O      13.64575      1.80354      8.60029         0.017416      0.633761      1.077561
O      13.59184     13.59564      8.68876         0.042575      0.152095      1.046952
O       1.93898      5.70480      0.38294         0.159921      0.139349      0.251332
O       2.10228      5.77258     12.89997        -0.477546      0.083702     -0.545108
O      13.70720      5.82732      0.40071        -0.061151     -0.417261     -0.021243
O      13.72270      5.93099     13.02506        -0.277513     -0.512580     -0.721072
O       2.07532      5.99129      4.45367        -0.114212     -0.235891      0.957069
O      13.54275      5.76395      4.45178         0.280189      0.091928      0.030015
O       1.86513      5.67880      8.64726        -0.094184      0.682690      1.363086
O      13.72263      5.74140      8.67874        -0.384433      0.387645     -0.011739
O       1.86252      9.64681      0.45323         0.317861      0.533716     -0.687605
O       1.73831      9.50228     13.01469         0.414818      0.807708     -0.663987
O      13.68922      9.90495      0.49437        -0.166033     -0.274530      0.186961
O      13.71208      9.72817     12.91731         0.204945     -0.032497     -0.306802
O       2.00498      9.58225      4.60516        -0.028198      0.138277      0.505913
O      13.66533      9.76050      4.52910        -0.231199      0.233261      0.139982
O       1.86804      9.74221      8.69485         0.200640     -0.213412      0.624584
O      13.46936      9.68751      8.78161         0.691881     -0.322175     -0.130773
O       5.96451      1.91314      0.51599        -0.110964      0.114387     -1.721926
O       5.92652      2.06734     12.87804        -0.135650     -0.510484     -0.248063
O       5.72837     13.65531      0.36025         0.103302     -0.079996     -0.258801
O       5.92999     13.57939     12.84424        -0.299027     -0.176303      0.469451
O       5.73546      1.87865      4.69016         0.161454     -0.144005     -1.691196
O       5.83008     13.78002      4.70273         0.235151     -0.464746     -1.225345
O       5.79297      1.89125      8.76930         0.121538     -0.277575      0.128426
O       5.95901     13.56507      8.78606        -0.503960      0.174481      1.112541
O       5.96645      5.72075      0.36640        -0.186562     -0.172438      0.697486
O       5.86269      5.76858     12.87112         0.100598      0.249959      0.136812
O       5.90180      5.83798      4.56982         0.030277      0.082656     -0.301267
O       5.83561      5.96889      8.62796         0.126063     -0.082807      0.065987
O       5.83738      9.70792      0.35411        -0.079718      0.138571      0.922662
O       5.74595      9.56327     12.97738         0.299342      0.566363     -1.341350
O       5.83080      9.69148      4.58649         0.337921      0.277305     -0.479147
O       5.92579      9.79901      8.82968        -0.840110     -0.153757      0.190854
O       9.66530      1.74443      0.47615         0.180636      0.345818      0.474116
O       9.63656      1.98082     12.89060         0.416192      0.114515     -1.315754
O       9.75446     13.64112      0.34602         0.538219      0.356877      0.968920
O       9.77519     13.56215     12.88880         0.066588     -0.184330     -0.104577
O       9.70003      1.92175      4.68489         0.385800     -0.140831     -0.276245
O       9.70330     13.66110      4.63466        -0.002972     -0.434117     -0.164567
O       9.75084      1.80457      8.72609         0.147969      0.295314      0.586193
O       9.78937     13.60094      8.85399        -0.093300      0.524262     -0.270867
O       9.77920      5.80861      0.37504        -0.053051     -0.075349     -0.160026
O       9.82279      5.81635     12.85100        -0.267497      0.022840      0.082985
O       9.88560      5.68803      4.64021        -0.100207      0.178188     -0.757071
O       9.76646      5.92849      8.71187         0.394052     -0.303595      0.212637
O       9.89466      9.72647      0.32379        -0.296864     -0.114977      0.870660
O       9.81063      9.76365     12.81744        -0.298309     -0.269033      0.554855
O       9.69483      9.80279      4.51115         0.172892      0.020511     -0.585683
O       9.68436      9.80375      8.74637         0.110699     -0.682168     -0.458452
O       3.93146      1.99714      2.49863        -0.169144     -0.175899      0.045228
O       3.98866      1.97249     15.08017        -1.603194     -0.057046     -0.001135
O       3.92351     13.42645      2.61883         0.938746      0.932107     -0.350070
O       3.84095     13.49457     14.93179         0.807388     -0.153417     -0.235544
O       0.04513      1.86608      2.58372         0.009544     -0.229955     -0.195780
O       0.00150      1.81250     15.16912         0.241574      0.366572     -0.607782
O       0.07167     13.80582      2.43965        -0.091900     -0.317795      0.183630
O      15.60483     13.57610     14.97051        -0.019911      0.815402      0.428648
O       3.86064      1.91399      6.74108        -0.221998     -0.138854      0.202295
O       3.87669     13.68793      6.74415         0.269190     -0.141886      0.098391
O      15.59308      1.90929      6.61816        -0.310949      0.026403     -0.137992
O      15.53314     13.75540      6.85291         0.087318     -0.749436     -0.958934
O       3.93951      1.98087     10.89743        -0.683997     -0.665941     -0.047787
O       3.91254     13.56043     10.88641        -0.200020      0.224189      0.065141
O       0.00166      1.72991     10.83714        -0.419361      0.964059      0.017008
O       0.00388     13.66419     10.71106        -0.652233      0.196894      0.441286
O       3.91411      5.76187      2.36482         0.343155      0.355190      0.154635
O       4.01779      5.72024     15.00282        -1.320922     -0.105192      0.403548
O       0.07211      5.94478      2.47786        -0.874764     -0.397819      0.141287
O       0.10420      5.84497     14.92721        -1.426566     -0.167392      0.326606
O       3.90768      5.79255      6.69798        -0.094234      0.704481     -0.237996
O      15.58845      5.78681      6.51078        -0.218876     -0.064572      0.205608
O       3.88721      5.61300     10.75835        -0.159829      0.783690     -0.045487
O       0.05133      5.85696     10.76788        -0.800510     -0.012322      0.466475
O       3.91175      9.90799      2.44667        -0.037406     -0.702077      0.180989
O       3.86703      9.78274     14.94614        -0.434238     -0.138196      0.415127
O      15.57212      9.76066      2.56848         0.656143      0.004140     -0.015660
O       0.02420      9.52343     15.16722        -0.466300      0.902344     -0.778036
O       3.91867      9.68192      6.66307        -0.218663     -0.007321      0.493810
O      15.60724      9.78788      6.66033        -0.484514     -0.227198      0.168388
O       3.74373      9.79177     10.96348         1.020581      0.030455     -0.233542
O      15.54912      9.74684     10.89512         0.359648     -0.744138     -0.538286
O       7.80083      1.86098      2.62332        -0.496886     -0.164479      0.038665
O       7.75037      1.71320     14.91355         0.417599      0.235001      0.518699
O       7.84067     13.63210      2.33435        -0.675968      0.334943      0.783771
O       7.82731     13.70709     14.97958        -0.388563     -0.277921     -0.066790
O       7.70978      1.83683      6.71258         1.654139      0.383295      0.295040
O       7.73029     13.48602      6.78408         0.941743      0.688728     -0.363335
O       7.84501      1.91827     10.85722         0.262643     -0.219672     -0.127937
O       7.83991     13.55064     10.92490        -0.395411      0.484100      0.095645
O       7.79771      5.79797      2.51243        -0.325499     -0.157374      0.127359
O       7.84060      5.83876     14.92830         0.552077      0.101256      0.023854
O       7.87200      5.74608      6.74340        -0.240382      0.493215     -0.300144
O       7.75906      5.87624     10.77538         0.750264      0.048468      0.012299
O       7.89045      9.69312      2.34913        -0.509998      0.195982      0.596270
O       7.79286      9.65699     14.90334         0.101355      0.166941      0.395981
O       7.80537      9.72050      6.67117        -0.865720      0.273424      0.083309
O       7.73464      9.54358     10.79556        -0.237063      0.681938      0.654447
O      11.69473      1.97544      2.48023         0.828473     -0.055558      0.370003
O      11.67136      1.95201     14.92772         0.426238     -0.021679      0.276051
O      11.69862     13.53707      2.55937         0.873313      0.390871      0.045357
O      11.77786     13.53792     14.99170        -0.730300      0.079307     -0.284426
O      11.63343      1.93885      6.68554         0.523642     -0.172366     -0.027355
O      11.66870     13.50582      6.63589         0.392970      0.693389     -0.142480
O      11.73771      2.10467     10.86345        -0.002775     -0.706862     -0.382820
O      11.76051     13.59106     10.87337        -0.271764      0.076340      0.051087
O      11.71956      5.69480      2.41270         0.550460     -0.069785      0.286835
O      11.65883      5.84625     15.04351         0.766474     -0.327989     -0.002330
O      11.74884      5.80233      6.61591        -0.115250      0.018700      0.492456
O      11.73182      5.74359     10.88254        -0.219205      0.064222     -0.496425
O      11.71011      9.77537      2.44223         0.210124      0.103906      0.835958
O      11.76274      9.72907     14.87045         0.346952     -0.162578      0.314000
O      11.64884      9.76499      6.64090         0.506430     -0.341095     -0.109988
O      11.67877      9.78594     10.90992         0.049624     -0.563521     -0.409424
O       1.93686      3.87509      2.54535        -0.128836      0.047921     -0.217888
O       1.91383      3.82496     14.98027         0.109778     -0.602974      0.114373
O       2.23849     15.55664      2.53245        -0.965510      0.234543     -0.147560
O       2.03766     15.47073     15.16439        -0.455606      1.635062     -0.457130
O      13.87692      3.87460      2.48480        -0.759238     -0.195098     -0.483219
O      13.63591      3.89439     14.97983         0.353206     -0.440400      0.411948
O      13.65171      0.00612      2.58406        -0.205453      0.060224      0.068486
O      13.58529     15.54478     15.00937         0.269143      0.433054     -0.333889
O       1.97618      3.92413      6.62192        -0.483942     -0.679639     -0.204208
O       1.93959     15.58203      6.64003        -0.214752      0.569508      0.068309
O      13.62501      3.86292      6.43667        -0.136482      0.145644      0.889119
O      13.56958      0.00782      6.52969        -0.187980     -0.579406      0.019999
O       1.96299      3.83400     10.83003        -0.908292     -0.165310      0.620208
O       1.96521     15.58056     10.84732         0.179509     -0.630072     -0.018084
O      13.84319      3.86712     10.77680        -0.578737     -0.008235     -0.058255
O      13.62744      0.02277     10.85900        -0.155429     -0.529679     -0.105726
O       1.96899      7.87796      2.45650         0.379157     -1.112410     -0.001964
O       2.07828      7.69089     15.02652        -0.285855      0.117340      0.006307
O      13.60930      7.80825      2.49818         0.065568     -0.485125      0.023423
O      13.63040      7.76848     15.04239         0.111090     -0.003338      0.280248
O       1.86671      7.75930      6.75116         0.140219      0.163765      0.086308
O      13.67344      7.75573      6.56094        -0.121023      0.242350      0.403510
O       1.96875      7.75880     10.86633         0.003710      0.136549     -0.523018
O      13.62459      7.73949     10.92813        -0.114963     -0.061172     -0.684297
O       1.96358     11.71174      2.66421        -0.652189     -0.374716     -0.668730
O       1.78153     11.68308     14.99103         0.571985     -0.665879      0.108830
O      13.82317     11.78174      2.56380        -0.570270     -0.057083     -0.067394
O      13.75384     11.62583     15.00549         0.083262      0.507201     -0.056220
O       2.01793     11.72787      6.60824        -0.360932     -0.759775      0.607833
O      13.61338     11.64377      6.76429         0.246303      0.296158     -0.724682
O       1.87108     11.67408     10.81660         0.031143     -0.119650      0.292729
O      13.73291     11.65937     10.76192        -0.160351      0.228805      0.197185
O       5.84985      3.77929      2.60719         0.309398      1.063354     -0.453839
O       6.00214      3.88889     14.87619        -0.012580     -1.186152      0.817720
O       5.79146     15.52846      2.39531        -0.087701      0.268767      0.693885
O       5.66034     15.50180     14.87564         0.458406      0.326670      0.304313
O       5.88131      3.88127      6.80507         0.018696      0.076995     -0.290981
O       5.88357     15.58400      6.78752        -0.324162     -0.467504      0.235154
O       5.88198      3.88632     10.60625         0.561311      0.131842      0.520849
O       5.84703     15.57661     10.83504         0.122892     -0.062070      0.296860
O       5.97601      7.80278      2.40996        -0.971895     -0.655657      0.021379
O       5.83844      7.74452     15.01700        -0.193773      0.206510      0.262683
O       5.87690      7.81434      6.64687         0.080007     -0.061140      0.252669
O       5.64104      7.75158     10.75354        -0.045787      0.908678      0.346012
O       5.97628     11.70072      2.45410        -0.146814     -0.120676      0.382594
O       5.93921     11.65083     15.01785        -0.333920      0.557675     -0.226937
O       5.77277     11.67870      6.65494        -0.014599     -0.247839      0.202759
O       5.82961     11.70044     10.83592         0.147449     -1.021317      0.734749
O       9.65595      3.83871      2.50851         0.279737     -0.161103      0.162086
O       9.74882      3.80822     14.93883        -0.163160      0.482244      0.201306
O       9.80539     15.55632      2.65854         0.117614     -0.007251     -0.225977
O       9.83070     15.55085     14.90930         0.201688     -0.274436      0.021303
O       9.75954      3.87670      6.82620         0.207409     -0.326600     -0.109227
O       9.69211     15.51967      6.84063        -0.117338      0.137638     -0.863685
O       9.72335      3.88790     10.71209         0.165018      0.075240      0.188488
O       9.82530     15.57149     11.01889        -0.138261      0.450048     -0.636400
O       9.80179      7.67125      2.44991         0.313354      0.623923      0.378160
O       9.72574      7.78395     14.92547         0.543949     -0.288801     -0.049499
O       9.67855      7.82253      6.69265         0.543330     -0.768436     -0.157704
O       9.70546      7.76542     10.81119         0.660954     -0.200627      0.117581
O       9.79142     11.68886      2.38798        -0.186165      0.496649      0.766022
O       9.70326     11.59504     14.93698         0.118875      1.181291      0.001748
O       9.72667     11.67043      6.64970         0.026317      0.047706     -0.004874
O       9.69342     11.66745     10.73782         0.075820     -0.482994      0.912245
