  # total energy = -7880.00344512 
CRSYTAL
PRIMVEC
    15.6080000000000005    0.0000000000000000    0.0000000000000000
     0.0000000000000000   15.6080000000000005    0.0000000000000000
     0.0000000000000000    0.0000000000000000   16.6239999999999988
PRESSURE
-0.040857 -0.352925 -0.052988 -0.028787 -0.241776 -0.037511
PRIMCOORD
320 1
Pb       4.02225      4.03504      4.24254        -0.408478     -0.192799     -0.323193
Pb       3.96497      4.01244     16.48783        -0.284308     -0.208817      0.512816
Pb       3.92011      0.11567      4.02222        -0.144915     -0.840071      0.068431
Pb       3.83591      0.03649     16.43814         0.239343     -0.708281      1.254683
Pb       0.11579      3.84770      4.19263        -0.285301      0.139760     -0.596228
Pb      15.58826      3.76223     16.61066        -0.061044      0.654084      0.479810
Pb      15.43249      0.03288      4.10160         0.222896      0.044608      0.116140
Pb      15.50906      0.03111     16.56885         0.472415      0.122815      0.252615
Pb       3.80030      3.80485      8.23699         0.195706      0.883854      0.009484
Pb       3.93679     15.53529      8.07594        -0.710643      0.433580      1.168437
Pb      15.53672      3.88139      8.36560        -0.100842     -0.173294     -0.551599
Pb      15.60066     15.54508      8.23559        -0.457731      0.481535      0.183185
Pb       3.73922      3.88438     12.60593         0.419209      0.337361     -0.228028
Pb       3.90011     15.51208     12.54114        -0.150309      0.428097     -0.373829
Pb       0.00413      3.99890     12.62406        -0.126879     -0.396444     -0.073984
Pb       0.17556     15.55310     12.45591        -0.515030      0.254734      0.234107
Pb       3.83863      7.88752      4.03701         0.077980     -0.082275      0.594942
Pb       3.98098      7.70781     16.59207        -0.251243      0.657631     -0.379678
Pb       0.10450      7.83351      4.18288        -0.600665     -0.612458     -0.364288
Pb      15.50482      7.74206     16.59444         0.214529     -0.066274     -0.143347
Pb       3.81282      7.72599      8.32136        -0.087771      0.419826     -0.210133
Pb      15.35095      7.68018      8.50906         0.308989      0.285627     -0.505078
Pb       3.99214      7.81236     12.34010        -0.121957     -0.430750      0.877577
Pb      15.43369      7.76619     12.51799         0.527981      0.106402      0.398661
Pb       3.80335     11.68745      4.03061         0.722125      0.276286      0.144615
Pb       3.94815     11.63927     16.58671        -0.025057     -0.025550     -0.008809
Pb      15.56717     11.66851      4.11250        -0.155083      0.352964      0.075279
Pb      15.50102     11.74394     16.55178         0.620740      0.433008      0.075466
Pb       3.85433     11.87148      8.26724         0.441429     -0.744031     -0.692046
Pb       0.12723     11.64154      8.12776        -0.858554      0.122579      1.073517
Pb       3.99509     11.55268     12.22733        -0.253280      0.039722      0.963350
Pb       0.13448     11.63863     12.42524         0.280151      0.166067      0.331385
Pb       7.81824      3.67503      4.12999        -0.147869      1.253145      0.333404
Pb       7.95589      3.99413     16.56361        -0.497582     -0.277788      0.216131
Pb       7.84163     15.47315      4.14884        -0.432261      0.064448     -0.394191
Pb       7.84043      0.13879     16.54531        -0.711275     -0.203865      0.295329
Pb       7.61830      3.78868      8.51721         0.322504      0.321422     -0.799092
Pb       7.77175      0.04122      8.17619         0.108592     -0.047078      1.015800
Pb       7.79532      3.56408     12.54013        -0.025511      0.917474      0.080581
Pb       7.73594     15.45036     12.45127         0.020251      0.606404     -0.325283
Pb       7.96873      7.84696      4.19542        -0.653823     -0.453468     -0.245445
Pb       7.63826      7.77803     16.59755         0.511845      0.324922      0.112982
Pb       7.79591      7.82966      8.13593        -0.151428     -0.330275      0.332949
Pb       7.82196      7.64569     12.38635         0.084233     -0.122924     -0.225322
Pb       7.87879     11.58391      4.14189        -0.309294      0.538189     -0.651746
Pb       7.76626     11.87471     16.51310        -0.346741     -0.746168      0.855504
Pb       7.76712     11.69398      8.15023        -0.543848     -0.111518      0.804006
Pb       7.84363     11.58425     12.34088        -0.193314      0.087103      0.070551
Pb      11.76812      3.68290      4.25199        -0.404111      0.553415     -0.226232
Pb      11.69483      4.10431      0.31870         0.082458     -0.142337     -1.164120
Pb      11.38503     15.44913      4.11798         0.740804      0.148181     -0.028038
Pb      11.70540     15.58107     16.50601         0.083716      0.082685      0.731529
Pb      11.66473      4.15296      8.42903        -0.025673     -0.847109     -0.753755
Pb      11.72476      0.22554      8.42045         0.409188     -0.366251     -0.379805
Pb      11.83719      3.76408     12.50882        -0.785100      0.480688      0.112918
Pb      11.54059     15.53662     12.37334         0.653251     -0.065034      0.018451
Pb      11.58371      7.71237      4.14165         0.639390     -0.139006      0.056011
Pb      11.70697      7.87853      0.03878        -0.314529     -0.433856     -0.281024
Pb      11.64447      7.80473      8.36400         0.198079     -0.114051     -0.357451
Pb      11.48133      8.02938     12.50359         0.260006     -0.774201     -0.198894
Pb      11.86866     11.31817      4.16071        -0.886127      1.238316      0.629373
Pb      11.70058     11.62406     16.60395        -0.083429      0.573085      0.402837
Pb      11.80051     11.91095      8.40741         0.294475     -0.309645      0.163595
Pb      11.84169     11.78550     12.46002        -0.693460      0.201973     -0.203778
Ti       1.94316      1.89447      2.30512        -0.558357      0.573005     -1.713189
Ti       1.89294      1.91778     14.81819        -0.306571      0.624269      0.073604
Ti       1.81089     13.60568      2.21186         1.416904      0.735203     -0.718091
Ti       1.96007     13.57518     14.63978         0.152068      0.954479      0.090395
Ti      13.61934      1.91278      2.19553         0.540628     -0.073138     -0.059550
Ti      13.51064      1.98276     14.67542         1.640637      0.664115      1.891198
Ti      13.56053     13.58620      2.24657        -0.654587      0.783675     -0.247883
Ti      13.59375     13.74138     14.61146         0.457686     -0.179726     -0.064073
Ti       1.86366      2.02618      6.44699        -0.638536     -0.295982     -0.688596
Ti       1.81160     13.71847      6.24568         0.775927      0.509166      0.263330
Ti      13.57023      1.95536      6.31392         0.522254     -0.523123      0.749406
Ti      13.62478     13.62058      6.31353        -0.717097      1.005353     -0.353764
Ti       1.94869      2.01452     10.52917         0.216185     -0.136527      1.026911
Ti       2.01399     13.72291     10.50376        -0.257253      0.083222      0.855843
Ti      13.73877      1.87116     10.60239        -0.014625     -0.168618     -0.627332
Ti      13.70596     13.59992     10.51133        -0.564752      1.122233     -0.433262
Ti       1.88685      5.82530      2.10851         0.399618     -0.829062      0.117703
Ti       1.87355      5.89866     14.74237         0.566926     -0.720646      0.665488
Ti      13.65709      5.86256      2.22415         0.271052     -0.638609      0.157526
Ti      13.57055      5.93078     14.74754         0.048100     -1.192429      0.288485
Ti       1.84258      5.99091      6.29269         0.935543     -0.606218      1.438487
Ti      13.61616      5.79380      6.27070        -0.337002      0.205704      0.358537
Ti       1.85739      5.94191     10.65573         1.383080     -0.580703     -0.940044
Ti      13.61098      5.82275     10.60446        -0.563628     -0.190267      0.905550
Ti       1.86204      9.72605      2.16760         1.078279      0.220019     -0.921213
Ti       1.87301      9.71987     14.73294         1.062684     -0.003990     -0.124703
Ti      13.71891      9.68195      2.15725        -0.989523     -0.089470     -0.315021
Ti      13.61915      9.87201     14.65651         0.328591     -1.706190     -0.316483
Ti       1.81085      9.76181      6.30758         2.556141     -0.676101      0.600243
Ti      13.57275      9.72810      6.52025         0.439158     -0.632683     -0.034552
Ti       1.87402      9.68511     10.54423         0.889660     -0.211062     -0.669369
Ti      13.64295      9.73964     10.68311        -0.312751     -0.024956     -2.257755
Ti       5.83262      1.95697      2.18836        -0.158282      0.500001     -0.079701
Ti       5.78630      1.96802     14.66809         0.498571      0.106295     -0.314842
Ti       5.82674     13.65553      2.12223        -0.806382      0.034876     -0.368630
Ti       5.82962     13.67276     14.54572        -0.413916     -0.276670      2.301122
Ti       5.85532      1.90928      6.30899        -0.256070      0.888689     -0.389726
Ti       5.83784     13.64785      6.30794        -0.205875     -0.543928     -0.390860
Ti       5.73482      1.87848     10.54731        -0.031517     -0.019406      0.549542
Ti       5.83621     13.60152     10.48218         0.278132     -0.123347      0.189397
Ti       5.80346      5.90021      2.32853         0.818442     -1.387156     -0.560649
Ti       5.87842      5.85779     14.68085        -1.073091     -0.230781     -1.144244
Ti       5.84446      5.86618      6.36415        -0.511385     -0.764746      0.020183
Ti       5.81240      5.73610     10.57407         0.001895     -0.170135      0.148061
Ti       5.84604      9.70587      2.28256        -0.083588      0.880087     -0.791816
Ti       5.95387      9.78487     14.58973        -1.661933     -0.264428      1.737036
Ti       5.83857      9.72282      6.32647        -1.869281      0.072482      0.391637
Ti       5.94544      9.64958     10.39770        -1.113677     -0.188292     -0.625244
Ti       9.78013      2.02065      2.22190        -0.376368     -0.721630     -1.410924
Ti       9.75166      1.90407     14.74401        -0.127536      2.105232     -0.628199
Ti       9.65675     13.67457      2.06070         0.803655     -0.365932      0.423774
Ti       9.73156     13.65610     14.66562         0.031528     -0.195482      0.370527
Ti       9.72877      1.90117      6.44632         0.759809      1.264587     -0.128504
Ti       9.75031     13.60833      6.48198         0.542456      0.719630     -0.666783
Ti       9.72471      1.91088     10.53046        -0.282470      0.145865      1.344645
Ti       9.68655     13.60996     10.49359         0.809372      0.423660     -0.706876
Ti       9.72647      5.83465      2.29608        -0.785048     -0.970485     -0.379215
Ti       9.73258      5.91949     14.67036         0.020523     -0.987007     -0.295518
Ti       9.69107      5.78785      6.32576         0.077606     -1.161573      0.501171
Ti       9.78847      5.71941     10.57972        -0.652769      0.122119      0.855187
Ti       9.73454      9.75398      2.18282        -0.444241      0.313963     -1.226647
Ti       9.76750      9.79177     14.68700        -0.726630     -1.374769     -0.332818
Ti       9.79481      9.81471      6.36676        -0.084459     -1.263999     -0.207522
Ti       9.74025      9.78884     10.37789         0.131632     -0.473961      1.286990
O       1.88236      1.80735      0.49624         0.070156      0.379985     -0.095239
O       1.93624      1.91862     13.05281        -0.166683     -0.168822     -0.875296
O       1.99369     13.51633      0.44246        -0.324720      0.347371      0.382393
O       1.98504     13.72896     12.81972        -0.276275     -0.393031      0.515342
O      13.70091      1.80349      0.41141        -0.595643      0.101901      0.141806
O      13.79122      2.05609     12.97907        -0.269221     -0.160370     -1.806467
O      13.49567     13.35089      0.46245         0.396084      0.494722     -0.269554
O      13.48220     13.72656     12.84230         0.291896     -0.657314     -0.017209
O       1.71100      2.07551      4.67087         0.490897     -0.215890     -0.134676
O       1.83446     13.76758      4.50913        -0.232013     -0.614496     -0.407284
O      13.58928      2.07159      4.51778         0.232997     -0.568865      0.330800
O      13.74625     13.61196      4.49197        -0.493640     -0.411620      0.644380
O       1.83214      2.05748      8.79081         0.161440     -0.209044     -1.080964
O       1.90936     13.75465      8.74541         0.072163     -0.602309     -0.045287
O      13.71949      1.88850      8.77470        -0.552170      0.021560      1.130552
O      13.58316     13.73520      8.68024         0.126839     -0.469497      1.077319
O       2.02059      5.72330      0.30094        -0.160349      0.735620      1.053449
O       1.85702      5.77175     12.98638        -0.303490     -0.051277     -1.267251
O      13.59685      5.84001      0.42279         0.137899      0.446140      0.202174
O      13.60966      5.81589     12.96825         0.426008      0.093401     -0.075698
O       1.86410      6.01056      4.53715        -0.103378     -0.238546      0.243112
O      13.60994      5.89200      4.50608         0.034227     -0.122170     -0.178623
O       1.95774      6.05243      8.84915        -0.686216     -0.207248      0.550391
O      13.54782      5.81703      8.82187         0.213603     -0.031263     -0.379671
O       1.80358      9.83273      0.36403        -0.222553     -0.100165      1.053154
O       1.75338      9.84337     12.94577         0.410290     -0.112393      0.120857
O      13.68381      9.77070      0.31906        -0.314026      0.027020      1.130289
O      13.64749      9.81128     12.79395        -0.238185     -0.164326      0.336200
O       1.97267      9.76968      4.50879        -0.472661     -0.182648      0.398684
O      13.49362      9.73083      4.71343         0.547459     -0.244302     -0.027197
O       1.81620      9.53631      8.76338         0.163160      0.600665      0.235479
O      13.58958      9.75193      8.79997         0.330031     -0.595520      0.150904
O       5.82006      2.03767      0.42277        -0.052921     -0.354340     -0.107541
O       5.83943      1.87848     12.85649        -0.074569     -0.122727      0.707733
O       5.78330     13.69467      0.30014         0.310125     -0.207083      1.450788
O       5.86934     13.53956     12.82262         0.119321     -0.035392     -1.255261
O       5.85188      1.80994      4.48852        -0.068312      0.448752      1.524459
O       5.96085     13.66241      4.52124         0.169182      0.111910      1.080433
O       5.77500      1.84846      8.74666         0.268772      0.459141      0.102791
O       5.73336     13.52659      8.71983         0.179764      0.309561     -0.159160
O       5.75809      5.77175      0.49547         0.007575      0.722609      0.269134
O       5.66915      5.86358     12.91038         1.016338      0.245325     -0.541892
O       5.85794      5.84080      4.60765        -0.465692     -0.013222     -0.645684
O       5.94760      5.60635      8.77476        -0.437846      0.237826      0.485619
O       5.77260      9.59090      0.51525         0.262630      0.148448     -0.205723
O       5.82797      9.67390     12.85306         0.345013      0.166466     -0.185017
O       5.75995      9.76703      4.51858         0.419875     -0.011203      0.379285
O       6.04642      9.70489      8.60575        -0.111018      0.015939      0.719714
O       9.73925      1.89390      0.37006        -0.030376      0.293618      0.464510
O       9.58815      2.01036     12.95554         0.300543     -0.775964      0.326268
O       9.58588     13.63328      0.29481         0.433557      0.337164     -0.094337
O       9.76805     13.58054     12.89900        -0.278105     -0.007574     -0.367482
O       9.86907      1.94478      4.66642        -0.393850     -0.019879     -0.930909
O       9.68225     13.71305      4.68909        -0.230429     -0.217912     -0.386123
O       9.67886      1.81876      8.79569         0.341070      0.389182     -1.661706
O       9.80487     13.52091      8.69367        -0.046080      0.385176      0.406476
O       9.62081      5.75843      0.51310         0.591259      0.058107     -0.817702
O       9.62568      5.77497     12.91426         0.496340      0.626983     -0.316661
O       9.84858      5.65971      4.58119        -0.214945      0.864347     -0.735541
O       9.75397      5.70872      8.78690         0.207233      0.183027     -0.055794
O       9.68378      9.69194      0.36980         0.617317     -0.262157      1.151616
O       9.80366      9.67317     12.84180        -0.403158      0.580641      0.788471
O       9.73831      9.55629      4.51530         0.173760      1.014505      0.480068
O       9.58541      9.73227      8.60578         0.488946     -0.219840      0.210737
O       3.78628      1.96293      2.56921         1.277707      0.063241      0.198371
O       3.84216      1.91385     15.05601         0.777019      0.268337     -0.398603
O       3.95064     13.72889      2.57147        -0.451105     -0.351618     -0.109784
O       3.91001     13.70886     14.84310        -0.596103     -0.463727      0.026537
O      15.55513      1.79441      2.51289        -0.638135      0.810729      0.329578
O       0.01133      2.04719     15.14006        -0.722078     -1.266807     -0.568487
O      15.55191     13.51470      2.37614        -0.237321      0.065803      0.286246
O      15.48145     13.62540     14.90918         0.085570     -0.462375      0.106215
O       3.79582      1.93470      6.70948         0.364727     -0.269621     -0.411701
O       3.86957     13.72111      6.62375        -0.336841     -0.470630     -0.271542
O      15.49530      1.80704      6.72559         0.645989      0.802812     -0.001479
O      15.47863     13.69429      6.70390         1.485583     -0.487488     -0.196149
O       3.86477      1.79352     10.90502         0.084741      0.356193     -0.217809
O       3.93021     13.53487     10.76281        -0.674598      0.034380      0.197160
O       0.01302      1.82731     10.82440         0.074312      0.413443      0.324958
O      15.60655     13.63116     10.88879         0.190311     -0.119586     -0.464443
O       3.85276      5.92868      2.71851        -0.043905      0.007997     -0.832596
O       3.86526      5.83550     14.87266        -0.152788     -0.014215      0.895284
O       0.05075      5.89453      2.53459        -0.950975      0.178366     -0.249003
O      15.54892      5.85381     15.11962        -0.027879     -0.174282     -0.463850
O       3.82878      5.74868      6.69536        -0.018013      0.230007     -0.160042
O      15.50713      5.82162      6.62749         0.806937      0.533524      0.280463
O       3.83184      5.89250     10.92090         0.755098      0.030590     -0.263016
O      15.57383      5.88828     10.91530        -0.146499     -0.157433     -0.018949
O       3.88155      9.83508      2.46274        -0.907923     -0.747478      0.096904
O       3.81395      9.70129     15.11087         0.040726      0.602462     -0.579797
O      15.53703      9.75761      2.64966         0.519332      0.459979     -0.501984
O      15.49643      9.78518     14.93938        -0.071585      0.329068      0.100363
O       3.97310      9.72460      6.77390        -0.748925      0.433377     -0.241414
O       0.03482      9.60455      6.66099        -1.008306      0.345260     -0.091424
O       3.93519      9.38914     10.64556        -0.193044      1.882304      0.140479
O      15.58685      9.78955     10.74676        -0.601920      0.079786      0.644164
O       7.77185      2.10045      2.50787         0.109231     -0.556065     -0.382580
O       7.66906      2.01614     14.99943         1.201514     -0.477182      0.041361
O       7.82883     13.71905      2.50685        -0.919656     -0.177329      0.002457
O       7.75957     13.63154     15.00235         0.797138      0.219135     -0.906913
O       7.80073      1.92022      6.64557        -1.066629     -0.306809      0.095047
O       7.82413     13.69351      6.87369        -0.666706     -0.281295     -1.098784
O       7.77605      1.95093     10.78620        -0.700023     -0.137379      0.187313
O       7.78837     13.55208     10.80935         0.123075      0.032919      0.056075
O       7.80349      5.67462      2.54063        -0.391066      0.467995      0.359360
O       7.74736      5.82457     14.96572         0.559832      0.411531      0.329807
O       7.74139      5.80654      6.54634         0.753526      0.233696      0.614450
O       7.81192      5.73456     10.84430        -0.323330     -0.038676      0.005642
O       7.84352      9.71470      2.50131        -0.253199     -0.182547      0.571757
O       7.73732      9.77965     15.10140         0.440404     -0.082819     -0.890915
O       7.73799      9.82872      6.55400         0.948513     -0.537342     -0.269146
O       7.78306      9.66275     10.87189         1.463762      0.173032     -0.247632
O      11.67506      1.95038      2.54248         0.117388     -0.319305     -0.226704
O      11.69139      1.90330     14.93812        -0.885054     -0.458805     -0.129502
O      11.57097     13.83736      2.29185        -0.104224     -0.761546      0.688862
O      11.67900     13.71647     14.98111        -0.971860     -0.134431      0.167826
O      11.66612      1.96433      6.72874         0.443018     -0.048387      0.228211
O      11.70558     13.49490      6.62491        -0.154056      0.118503      0.039993
O      11.60026      1.82634     10.93392         1.554734      0.341190     -0.266748
O      11.70020     13.68857     10.79949        -0.590315     -0.221485      0.085943
O      11.75623      5.88186      2.38484        -0.249310     -0.072136      0.378021
O      11.63625      5.92201     15.05677         0.378813      0.345778      0.242884
O      11.69048      5.72886      6.63872        -0.288069      0.262102      0.483844
O      11.72966      5.72435     10.93295        -0.374881      0.110042     -0.331588
O      11.69206      9.69330      2.56465        -0.065970     -0.432136     -0.664413
O      11.65178      9.55755     14.98521         0.327009      0.321483     -0.138392
O      11.72417      9.78535      6.70853        -1.434533     -0.035301      0.163489
O      11.65687      9.79190     10.76789        -0.458175     -0.535992      0.096532
O       1.86265      3.96046      2.53234         0.086035     -0.246337      0.161960
O       1.89786      3.86566     15.02489         0.189586     -0.034900     -0.063850
O       1.90394      0.05891      2.59834        -0.108197     -1.670502      0.114780
O       1.87037     15.48400     15.12037        -0.217211      0.661244     -0.554551
O      13.64214      3.84588      2.42007        -0.017786      0.525640      0.006649
O      13.56843      3.86470     15.14347        -0.005681      0.429356     -0.337246
O      13.59088     15.48375      2.49409         0.325310      0.406898      0.032550
O      13.67167     15.60375     14.93840        -0.307409      0.060350      0.285590
O       1.84363      3.96411      6.75761        -0.291960     -0.519659     -0.152453
O       1.86414     15.56911      6.66030         0.031053      0.441281      0.068749
O      13.66790      3.85139      6.70964        -0.008217      0.438878     -0.086532
O      13.59492     15.59340      6.56585        -0.357939     -0.334030      0.104499
O       2.03607      3.92235     10.87725        -0.671541     -0.309001      0.139934
O       2.04253      0.05768     10.94293        -0.548619     -1.535669     -0.528623
O      13.73186      3.91985     10.97267        -0.114663     -0.929753     -0.456456
O      13.61192     15.59231     10.92852         0.189206      0.110777     -0.320041
O       1.84215      7.82931      2.40953         0.327071      0.449345      0.160927
O       1.88768      7.80090     14.91923        -0.421108      0.405751      0.417143
O      13.72718      7.83278      2.51848        -0.235275      0.004007     -0.246283
O      13.71657      7.79679     15.02965        -0.452713      0.377675     -0.125709
O       2.06537      7.85018      6.63542        -0.569907     -0.360965     -0.428495
O      13.52422      7.69940      6.81938         0.284663      0.668471     -0.127441
O       1.88943      7.82284     11.07621        -0.651639     -0.170343     -0.200508
O      13.66552      7.77641     10.83859        -0.087198      0.371965      0.054201
O       1.95310     11.70106      2.54758        -0.433293     -0.184819      0.110463
O       1.80613     11.79358     15.02209         0.347064     -1.351900     -0.299136
O      13.52374     11.60298      2.65722         0.628471      0.069362     -0.624175
O      13.32357     11.65308     14.83984         0.686835      0.730398      0.129613
O       1.86781     11.74620      6.59287         0.145307     -0.440286      0.033670
O      13.73830     11.63362      6.73577         0.053616      0.378503     -0.153227
O       2.03534     11.62402     10.96864        -0.450303      0.381944     -1.155944
O      13.44661     11.68366     10.72629         0.984955      0.800387      0.343595
O       5.68324      3.92983      2.62076         0.264302     -0.335462      0.096400
O       5.90513      3.96164     14.93259        -0.896928     -1.040539      0.067320
O       5.81835      0.03711      2.50445         0.370689     -0.090735     -0.282551
O       5.81701     15.58997     14.90740         0.273817      0.423641     -0.199461
O       5.75106      3.80205      6.59242         0.311410     -0.400190      0.229297
O       5.83232     15.58043      6.79284         0.299478      0.159564     -0.959214
O       5.67857      3.74823     10.98546         0.420093      1.002724     -0.862109
O       5.84224     15.43423     10.93167         0.135668      0.975287     -0.348535
O       5.92445      7.78931      2.62241        -0.269820     -0.141807     -0.078455
O       5.74340      7.79578     15.04931         0.786359      0.433309     -0.202249
O       5.80741      7.73091      6.68255         0.428695      0.651689     -0.083168
O       5.91891      7.76174     10.74617         0.289742     -1.223584      0.139740
O       5.79909     11.68539      2.45073         0.593583      0.404362      0.130862
O       5.86299     11.72621     15.05428        -0.408477     -0.728330     -0.747980
O       5.73429     11.77813      6.68179         0.657843     -0.421888     -0.267451
O       5.87965     11.56214     10.84983        -0.111228      0.340935     -0.484934
O       9.83591      3.86556      2.59570         0.065106     -0.093758     -0.187535
O       9.83730      3.90827     14.98777        -0.613517     -0.225299      0.438862
O       9.61461      0.10822      2.43950         0.148999     -1.077603      0.587426
O       9.69382      0.00228     14.88660        -0.101574     -0.728411      0.328812
O       9.68821      3.86722      6.71184         0.057884      0.063749      0.296826
O       9.78109     15.58714      6.59926        -0.065530     -0.382033      0.835489
O       9.83403      3.78319     11.00491        -0.325011      0.948794     -0.881899
O       9.68497     15.58550     10.78429        -0.199385     -1.169504      0.529906
O       9.74508      7.66798      2.46398        -0.071502      1.792156      0.698790
O       9.59928      7.82585     14.91430         0.198042     -0.223197      0.307463
O       9.76315      7.79494      6.51762        -0.143624     -0.177357      0.737651
O       9.87579      7.73658     10.79847        -0.639849      0.333387     -0.136120
O       9.63985     11.69956      2.41515         0.457386     -0.138220      0.184232
O       9.82389     11.60330     15.09740        -0.347559      1.471244     -0.821263
O       9.65811     11.62936      6.67155         0.231554      0.569100     -0.446373
O       9.73526     11.69748     10.78672        -0.141836     -0.734265     -0.049016
