  # total energy = -7881.80206722 
CRSYTAL
PRIMVEC
    15.6080000000000005    0.0000000000000000    0.0000000000000000
     0.0000000000000000   15.6080000000000005    0.0000000000000000
     0.0000000000000000    0.0000000000000000   16.6239999999999988
PRESSURE
-0.319551 -0.317183 0.620347 -0.110582 0.046617 -0.007114
PRIMCOORD
320 1
Pb       3.82619      3.79852      4.06613         0.410852      0.099110      0.913277
Pb       3.77387      3.77377      0.04358         0.078846      0.070944     -0.504780
Pb       3.90610     15.49929      4.23894         0.460343      0.053282     -0.307732
Pb       3.91723     15.53931      0.07876        -0.061692      0.115110     -0.398643
Pb      15.49414      3.82746      4.14802         0.333637      0.381365     -0.366300
Pb      15.54907      3.91391     16.55582         0.370431      0.372133      0.351859
Pb       0.11821      0.01249      4.19691        -0.576336     -0.471779     -0.055219
Pb       0.04771     15.54827      0.00006         0.104030      0.144367      0.534005
Pb       3.98556      4.00300      8.34676        -0.540653     -0.150896     -0.317955
Pb       3.90909      0.14209      8.48591         0.258698     -0.045127     -0.584419
Pb       0.05012      3.91503      8.22743         0.161400      0.087773     -0.166187
Pb       0.09136      0.06725      8.29161        -0.952993      0.059040      0.279126
Pb       3.87581      3.99084     12.39197        -0.209672     -0.013310      0.377491
Pb       3.85446     15.56606     12.33053         0.325353      0.119763      0.366757
Pb      15.53121      3.74817     12.22845         0.071617      0.163879      1.293989
Pb      15.48243     15.59815     12.38469         0.152294     -0.395619     -0.145960
Pb       3.84212      7.73884      4.21132        -0.119652      0.181737     -0.474330
Pb       3.78762      7.80519     16.59362         0.153974     -0.073321     -0.096519
Pb      15.56690      7.80958      4.05811         0.220106      0.277420     -0.214536
Pb       0.01452      7.79873      0.01030        -0.052644     -0.107677     -0.166094
Pb       4.03644      7.82940      8.23279        -1.019911      0.072759      1.086816
Pb       0.06845      7.84756      8.16165        -0.089374     -0.146031      1.162393
Pb       3.76868      7.85866     12.53253         0.219232     -0.040335     -0.334716
Pb      15.59530      7.75947     12.40880        -0.064362     -0.069508      0.031494
Pb       3.96932     11.66667      4.22703        -0.030590      0.271075     -0.236010
Pb       3.89253     11.66287     16.52053        -0.083820      0.049184      0.493374
Pb       0.05239     11.79935      4.18552        -0.122634     -0.420173     -0.276124
Pb       0.05915     11.75056      0.06269        -0.021045     -0.289854      0.013298
Pb       3.89051     11.57576      8.25419        -0.214393      0.148605      0.484170
Pb      15.45741     11.72215      8.32569         0.326353     -0.187880     -0.147641
Pb       3.77202     11.81680     12.56034         0.097974     -0.475829     -0.123467
Pb      15.47342     11.57492     12.37678         0.031647      0.695637      0.385187
Pb       7.75052      3.97140      4.09832         0.170499     -0.180063     -0.086563
Pb       7.63170      3.67268      0.02963         0.136102      0.732658      0.021513
Pb       7.73406      0.00762      4.08033        -0.037654     -0.159923      0.261003
Pb       7.78385     15.41408      0.00754        -0.107803     -0.044960     -0.409406
Pb       7.77697      3.96517      8.22489         0.449881     -0.099781      0.581459
Pb       7.78430     15.53307      8.44462         0.073301      0.158195     -0.249421
Pb       7.75497      4.10126     12.46300         0.549481     -0.491107      0.341567
Pb       7.86991      0.12936     12.49091        -0.575632     -0.472586      0.054169
Pb       7.60890      7.79083      3.97358         0.974846     -0.105608      0.563265
Pb       7.91339      7.80660     16.54659        -0.301824     -0.538240      0.434243
Pb       7.80310      7.80832      8.43827        -0.113111      0.030971     -0.293108
Pb       7.80331      7.83209     12.56296         0.009984     -0.078907     -0.102547
Pb       7.72296     11.75543      4.07238         0.661787     -0.658212      0.254941
Pb       7.82547     11.51126     16.61963         0.365697      0.722362     -0.086324
Pb       7.61588     11.63605      8.37195         0.690525     -0.207447     -0.366780
Pb       7.71178     11.66805     12.53077         0.624390     -0.292157      0.070581
Pb      11.63281      4.03207      4.15781         0.238224     -0.340475     -0.223965
Pb      11.72448      3.76772     16.42483        -0.071531      0.466214      1.057572
Pb      11.86195      0.23102      4.21345        -0.123801     -0.848008     -0.159495
Pb      11.71409     15.55162      0.03495         0.139486      0.234223      0.119002
Pb      11.67613      3.76802      8.18870         0.031003      0.407917      0.035760
Pb      11.58326     15.42175      8.21951         0.552515      0.274297     -0.051946
Pb      11.60243      3.88264     12.41294        -0.112445     -0.090870      0.009531
Pb      11.87309     15.54487     12.45515        -0.321845      0.246189      0.351304
Pb      11.72301      7.77751      4.03545        -0.241736      0.431345      0.140155
Pb      11.64689      7.72529     16.56646         0.023067      0.408904      0.065378
Pb      11.71241      7.84271      8.09225        -0.245063     -0.838658      0.594730
Pb      11.81344      7.60733     12.45743        -0.605605      0.281003     -0.312091
Pb      11.53702     11.96391      4.23692         0.129745     -0.857434     -0.417316
Pb      11.84627     11.79065     16.61102        -0.564392     -0.468091      0.057643
Pb      11.66089     11.57389      8.15006        -0.150812      0.881975      0.551783
Pb      11.57355     11.58933     12.38958         0.233959      0.070956      0.337801
Ti       1.94786      1.81742      2.36373         0.313127      0.473553     -1.336828
Ti       1.92397      1.84886     14.71287         0.740773      0.177554      0.429343
Ti       2.02355     13.56295      2.31178         0.333366     -0.130469     -1.033874
Ti       1.95779     13.54744     14.65620         0.214114      1.399567      0.003892
Ti      13.68845      1.93809      2.17159        -0.113070     -0.070043      0.139877
Ti      13.74988      1.96283     14.74760        -1.407777      0.128374      0.168351
Ti      13.65540     13.59649      2.32271        -0.146602      0.946673     -0.845321
Ti      13.72127     13.71815     14.72449        -0.250819     -0.307752     -1.044305
Ti       1.95896      2.05663      6.40290         0.838842     -0.057582      0.511620
Ti       1.96868     13.66748      6.50548         0.501368      0.030202     -0.849477
Ti      13.67943      1.97638      6.31668        -0.043406     -0.598808      1.113629
Ti      13.72028     13.61074      6.31922        -0.478601      1.023155     -0.496477
Ti       1.94396      1.96693     10.50889         0.261978      0.115836     -1.017845
Ti       1.93104     13.66606     10.50945        -0.886709     -0.610293      0.585289
Ti      13.52719      1.91429     10.39297         0.428095     -0.582973     -0.962557
Ti      13.55015     13.62514     10.52915         0.998748      0.030484     -0.761653
Ti       1.93487      5.78342      2.27175        -0.118129      0.169001     -0.740590
Ti       1.93654      5.77780     14.69338        -0.778691     -0.292850      0.451272
Ti      13.69444      5.91970      2.07271        -0.012516     -1.063125      0.021476
Ti      13.61659      5.98433     14.62315         0.450634     -1.495207      1.730338
Ti       1.99182      6.01812      6.28399        -0.028715     -1.428776     -0.234011
Ti      13.76821      5.87461      6.30172        -1.344071     -0.627582      0.451289
Ti       1.84978      5.91942     10.51531         1.330918      0.335464     -1.452834
Ti      13.69796      5.71287     10.36065        -0.991370      0.931579      2.285244
Ti       2.06211      9.75569      2.28090        -1.098099      0.497541     -0.515305
Ti       1.89064      9.74045     14.65178         0.380959      0.557946      0.231039
Ti      13.61764      9.79547      2.24177         0.325554      0.647533     -0.821035
Ti      13.65365      9.81247     14.65954        -0.472142      0.002073      0.525997
Ti       1.83627      9.80237      6.31217         1.085448      0.106716      0.501868
Ti      13.59731      9.71727      6.32940         0.655791      0.373079     -0.209986
Ti       1.85063      9.79461     10.56469         1.135348     -0.626058      0.598444
Ti      13.56893      9.60597     10.49085         0.367157      0.142441      0.147595
Ti       5.88933      1.87697      2.27129        -0.595719     -0.404498      1.824381
Ti       5.77009      1.92570     14.61025         0.017542     -0.104047      0.698642
Ti       5.91288     13.48804      2.14079        -0.906805      1.181945      0.337193
Ti       5.83468     13.62616     14.63832         0.626582      0.134356      1.071123
Ti       5.90215      1.98544      6.42865        -1.164740     -0.768312     -0.302041
Ti       5.83809     13.66394      6.52553        -0.162783     -0.081473     -0.419410
Ti       5.91366      2.00688     10.59536        -0.501102     -0.592473      0.162941
Ti       5.85554     13.52806     10.61768        -0.260671      0.686220      0.062414
Ti       5.78006      5.79549      2.24089         0.311814     -0.639797      0.492433
Ti       5.74633      5.82507     14.68693         0.500022     -0.232474     -0.748725
Ti       5.85238      5.82807      6.38659        -0.325159      0.316040     -0.550580
Ti       5.83704      5.86260     10.57334        -0.206875      0.547181     -0.280693
Ti       5.82568      9.66246      2.13512         0.336645      0.872654      0.682153
Ti       5.81918      9.72107     14.71035        -0.356637     -0.193801      0.097843
Ti       5.80590      9.68029      6.28310         0.445676      0.912114      0.191389
Ti       5.77961      9.66889     10.64138        -0.388934      0.420165      1.287330
Ti       9.81382      1.90415      2.19937        -0.326876      0.080503     -0.264974
Ti       9.64962      1.90075     14.70734         0.595684      0.508577     -0.051356
Ti       9.73221     13.72982      2.20493         0.338370     -1.275179     -0.146437
Ti       9.79942     13.64884     14.63180        -1.100772     -0.866281      1.954018
Ti       9.70053      1.87236      6.32903         0.555970      0.164055      0.205149
Ti       9.66508     13.58630      6.32878         0.164053     -0.369209      0.106683
Ti       9.74253      1.85894     10.52631         0.094623      1.219085     -0.043679
Ti       9.73320     13.66953     10.56835        -0.203016     -0.985702     -0.288691
Ti       9.83024      5.79429      2.19408        -1.038525      0.433148     -0.639879
Ti       9.67076      5.74888     14.74472        -0.123790      0.612096     -0.293943
Ti       9.71685      5.82516      6.31222         0.841370     -0.179410      0.489655
Ti       9.80864      5.84951     10.50946        -0.297125     -0.896898      0.320725
Ti       9.75477      9.72649      2.20678        -0.153774      1.564053     -0.051268
Ti       9.75359      9.69703     14.74147         0.862173      0.770173     -0.036014
Ti       9.69278      9.68850      6.25526        -0.461358      0.991570     -0.459807
Ti       9.74424      9.64465     10.57950        -0.778646      0.392747      1.519359
O       2.01022      1.82981      0.56098         0.095622      0.343380     -0.023557
O       1.96553      1.90417     12.96689        -0.155242     -0.050407     -0.789804
O       2.04273     13.34611      0.49193         0.069729      0.847746      0.516493
O       1.86248     13.64144     12.89862         0.094422      0.163553     -0.600810
O      13.54980      1.87985      0.41322         0.575437     -0.083055     -0.394295
O      13.60925      1.98025     12.98939         0.103097     -0.308021     -0.605810
O      13.59199     13.63667      0.46141         0.298628     -0.106245      0.323353
O      13.72752     13.78841     12.85934        -0.149277     -0.052581      1.457067
O       1.89089      1.77125      4.63528         0.186199      0.315960     -0.110356
O       2.03458     13.76107      4.67924        -0.503451     -0.463283      0.220266
O      13.81711      2.02588      4.52215        -0.689636     -0.233299      0.229464
O      13.76235     13.59237      4.48329        -0.344628     -0.161251      1.246598
O       1.87985      1.90514      8.68719         0.023297      0.433432      0.626986
O       1.95526     13.52046      8.76024        -0.340593      0.289732     -0.709253
O      13.64339      1.91530      8.60766        -0.027970     -0.126683      0.791627
O      13.52035     13.71755      8.71065         0.196258     -0.616173      0.057727
O       1.88143      5.83790      0.41856         0.285242      0.022612      1.201731
O       1.92203      5.79231     12.92803         0.154098      0.286470     -0.555462
O      13.69614      5.99934      0.28787         0.080318     -0.228140      1.317238
O      13.44896      5.78911     12.87808         0.621633      0.239646     -0.412697
O       1.99387      5.85860      4.46679         0.020195      0.733216      0.937150
O      13.73949      5.88599      4.51933        -0.376923     -0.197328      0.330426
O       1.82879      6.01970      8.69005        -0.185044     -0.604707      0.879813
O      13.77971      5.85162      8.69325         0.109486     -0.136138     -2.075746
O       1.96477      9.94617      0.46498         0.034912     -0.477843      0.326088
O       2.11205      9.81765     12.88481        -0.753987     -0.574836     -0.049161
O      13.66603      9.84705      0.42253         0.183182     -0.091882      0.719432
O      13.69489      9.67699     12.88442        -0.401253      0.020799     -0.202767
O       2.00164      9.78120      4.56613        -0.157329     -0.121402     -0.463300
O      13.65077      9.66456      4.59117         0.138107     -0.123500     -0.575957
O       1.95234      9.68398      8.85102        -0.303184      0.297552     -1.345155
O      13.64714      9.67961      8.73131        -0.170873      0.368625     -0.457544
O       5.72746      1.87258      0.57270        -0.020715      0.144422     -2.028943
O       5.78084      1.95212     12.85271         0.002128     -0.243409     -0.359052
O       5.80087     13.60346      0.37093         0.091737      0.201523      0.413501
O       5.86857     13.55580     12.90482         0.084294      0.170302     -1.471420
O       5.94328      1.76436      4.67692        -0.197531      0.561794      0.311430
O       6.02825     13.47373      4.76039        -0.540848      0.781088      0.445507
O       5.90003      2.05636      8.83044        -0.031576     -0.040274     -0.737566
O       5.61247     13.45957      8.84451         0.966961      0.113812     -0.330345
O       5.86918      5.65257      0.52964        -0.336036      0.433296     -0.763572
O       5.71901      5.88551     12.84756        -0.120002     -0.462421      0.313844
O       5.77449      5.85643      4.60846         0.138046      0.234471     -0.236305
O       5.90829      5.67214      8.71077        -0.055385      0.637003      0.951727
O       5.93314      9.69605      0.36978        -0.491620     -0.361963      0.052610
O       5.85893      9.60034     12.92253        -0.196796      0.174208      0.725842
O       5.74242      9.85962      4.51692         0.170553     -0.819783      0.915380
O       5.76358      9.65896      8.87490         0.844472      0.341248     -0.781888
O       9.79048      1.96210      0.41775        -0.346471     -0.253999      0.502754
O       9.70635      2.03561     12.90375        -0.179218     -0.399722      0.772010
O       9.81348     13.91204      0.43643        -0.266660     -0.512266     -0.297647
O       9.72127     13.54796     12.90399         0.146842      0.358121     -0.576991
O       9.90810      1.91652      4.56732        -0.569445      0.447469      0.103610
O       9.55052     13.34985      4.52760         0.459581      0.811929      1.071825
O       9.82230      1.77431      8.75563        -0.411299      0.078880     -0.693374
O       9.87278     13.73434      8.76504        -0.311397     -0.094918      0.715687
O       9.71202      5.92734      0.42815         0.247516      0.065737     -0.048158
O       9.78844      5.64374     12.93023         0.139612      0.270061      0.187872
O       9.84804      5.68499      4.55958         0.032275      0.223871     -0.382942
O       9.63219      5.80874      8.75358        -0.160507      0.607950     -0.606953
O       9.61689      9.61702      0.41277         0.335105      0.007303      0.223534
O       9.70383      9.70994     12.97202         0.525708      0.085475     -0.047629
O       9.79398     10.00257      4.53358        -0.042797     -0.604693      0.049801
O       9.57348      9.48566      8.84946         0.202185      0.219934     -1.134250
O       3.89933      1.85441      2.69481        -0.118538      0.415211     -0.144716
O       3.89545      1.95253     15.02536        -0.713983     -0.399139      0.222894
O       4.03507     13.61286      2.65204        -0.466669      0.230578     -0.063384
O       3.93556     13.58003     14.79647        -0.545582      0.049645      0.630833
O      15.58698      1.78514      2.53798         0.493279      0.472844     -0.013160
O       0.00888      1.89745     15.06389         0.160455     -0.240566      0.004964
O       0.10263     13.52862      2.56163        -0.154840      0.133316     -0.187580
O       0.05354     13.75561     15.12521        -0.835383     -0.963708     -0.440778
O       3.91694      1.91193      6.78656        -0.275060     -0.221438      0.020781
O       3.86677     13.66626      6.68486         0.434490     -0.213715      0.198805
O       0.06112      2.07722      6.67297        -0.255558     -0.191228      0.057893
O      15.54261     13.47586      6.63510         0.576073      0.189963      0.427971
O       3.91446      1.92523     10.67735        -0.711298      0.197834      0.534144
O       3.81631     13.50812     10.86561         0.154931      0.572201      0.404925
O      15.49181      1.89101     10.75846         0.625357      0.252051      0.105807
O      15.56728     13.76477     10.84316         0.356653     -0.391303     -0.399229
O       3.88361      5.66686      2.57809         0.032858      0.544723     -0.495641
O       3.82200      5.62740     14.98982         0.042770      1.033864      0.314397
O       0.03951      5.85249      2.54764        -0.514783      0.090837     -0.384619
O      15.59138      5.86098     15.03373        -0.287784      0.325714     -0.362144
O       3.84108      5.98377      6.72020         0.549973      0.097883     -0.194085
O       0.03746      5.78097      6.54375        -0.200527      0.382136      0.194589
O       3.80869      5.99462     10.66722         0.999534     -0.873007      0.629878
O      15.59063      5.72295     10.94703        -1.041409      0.514248     -0.545699
O       3.94984      9.76701      2.59436        -0.252746     -0.101580     -0.389501
O       3.85746      9.61114     15.07328         0.658443      0.637415     -0.250177
O       0.02552      9.73318      2.55330        -0.084110      0.293470      0.095583
O       0.01707      9.95933     14.85587        -0.336330     -0.578862      0.373849
O       3.86244      9.61311      6.73300         0.565154      0.595990     -0.583759
O      15.59919      9.70007      6.75370        -0.914758      0.676344     -0.524228
O       3.87158      9.58582     10.87623         0.356207      0.516060      0.028428
O      15.53672      9.60872     10.84023        -0.083855      0.641777      0.233731
O       7.80477      2.05668      2.52661         0.997296     -0.514259      0.001249
O       7.64828      1.96052     15.07649         0.956969     -0.129310     -0.288722
O       7.81578     13.75703      2.58318        -1.303458     -0.378198     -0.711733
O       7.80190     13.50853     15.07379         0.457308      0.654918     -0.235896
O       7.76615      1.97994      6.72223         0.973198     -0.028257     -0.054027
O       7.84372     13.64701      6.89576        -1.108290     -0.384953      0.211689
O       7.79176      1.88442     10.84886        -0.146781      0.046938      0.105248
O       7.80683     13.61415     10.76642        -0.357293     -0.303521     -0.089998
O       7.91214      5.85209      2.56054        -1.210522      0.095409      0.239827
O       7.71430      5.85591     14.87756         0.292155      0.003493      0.197660
O       7.74382      5.72253      6.53154         0.767416      0.217701      0.408498
O       7.77025      5.85147     10.91730        -0.091189     -0.176057     -0.360159
O       7.76136      9.66102      2.59531        -0.847825     -0.040185     -0.544215
O       7.83208      9.66478     15.09297        -1.036113     -0.143490     -0.762843
O       7.82313      9.81326      6.53476        -1.032650     -0.620704      0.572031
O       7.85368      9.74992     11.10881        -0.484869     -0.368272     -1.128563
O      11.75633      1.83050      2.53873        -0.343562      0.232107     -0.001531
O      11.65244      1.92255     15.06430        -0.244280      0.093948     -0.727360
O      11.64550     13.72572      2.58432         0.416969     -0.497501      0.169599
O      11.69609     13.77460     15.01874         0.065140     -0.352522     -0.452775
O      11.77396      1.88252      6.61695        -0.508764      0.204545     -0.287631
O      11.57781     13.60962      6.56928         1.158629     -0.157122     -0.095105
O      11.63751      1.74718     10.77553         0.521063      0.468628      0.350763
O      11.67904     13.60760     10.92221        -0.452375      0.448100      0.069140
O      11.73646      5.94047      2.50198         0.629787     -0.090666     -0.035991
O      11.69683      5.79905     15.00771         0.178581      0.272224     -0.137667
O      11.69977      5.82163      6.68796         0.154721     -0.105647     -0.145729
O      11.71032      5.76525     10.71350        -0.122418      0.330611      0.197696
O      11.69578      9.86388      2.53995         0.241436     -0.544587     -0.251751
O      11.68699      9.79197     15.09317         0.784959     -0.286696     -0.426170
O      11.69996      9.76190      6.63230        -0.308245     -0.490178      0.195082
O      11.70274      9.67105     10.80406        -0.379122      0.219158      0.222874
O       1.91157      3.82208      2.71960        -0.188718      0.198763     -0.816538
O       1.85001      3.87897     15.04297         0.124518     -0.848878      0.057050
O       2.04077     15.53135      2.49818        -0.148818     -0.507471      0.412532
O       1.99702     15.49468     15.12098         0.073886      1.041351     -0.076722
O      13.66628      3.86022      2.34077         0.232728      0.643355      0.470797
O      13.73753      3.92752     15.12269        -0.389439     -0.531553     -0.784195
O      13.71704     15.48940      2.56693        -0.099404      0.858113      0.118868
O      13.66938     15.59775     15.02929         0.154929      0.229138     -0.046592
O       2.10255      3.99992      6.60782        -0.556784     -0.826343      0.140282
O       1.81252     15.54936      6.80761         0.486273      0.165584     -0.307874
O      13.68911      3.89176      6.76136        -0.071968      0.386096     -0.719577
O      13.80395     15.59091      6.51554        -0.212901     -0.135258      0.009949
O       1.88727      3.90198     10.83764         0.270172     -0.341676     -0.242026
O       1.99373      0.07559     10.71698        -0.145680     -1.099388      0.364071
O      13.46745      3.81873     10.68574         0.714650      0.041457      0.237932
O      13.59698     15.58121     10.79763        -0.119888      0.378231      0.404989
O       2.04950      7.85646      2.48443        -0.005180     -1.086353      0.149831
O       1.89447      7.87257     14.99054         0.018506     -0.934661      0.069433
O      13.73180      7.77181      2.44112        -0.295185      0.576297      0.268324
O      13.69718      7.85832     15.01795        -0.103620      0.022133     -0.551643
O       1.85962      7.91099      6.62676         0.173645     -1.501820     -0.291441
O      13.60377      7.77998      6.69124         0.402583     -0.249906     -0.377218
O       1.88077      7.80991     10.86109        -0.659581     -0.580767      0.729046
O      13.57942      7.72082     10.71203         0.306866     -0.340258      0.614752
O       2.14267     11.69911      2.67318        -0.636970     -0.134718      0.226203
O       2.06423     11.71680     14.93366        -0.348881     -0.756021      0.033561
O      13.65577     11.70571      2.58419         0.186418     -0.365807     -0.055214
O      13.62797     11.74568     14.97463         0.002211      0.470446     -0.195782
O       1.89686     11.63977      6.72232         0.204871      0.677221      0.070353
O      13.61569     11.66233      6.63673        -0.080404     -0.013846      0.268770
O       1.84188     11.67457     10.93863        -0.041433      0.344254     -0.477327
O      13.61045     11.75484     10.92844         0.204199     -1.015597     -0.629585
O       5.91547      3.82508      2.64529        -0.510876      0.867611     -0.074937
O       5.72153      3.86486     14.98447         0.555406     -0.376242      0.185933
O       5.82346     15.57742      2.64343         0.499766     -0.307400     -0.349899
O       5.86941     15.52303     14.95033        -0.196156      0.751554      0.124772
O       5.67197      3.95649      6.62476         0.489009     -0.998752      0.242445
O       5.86574     15.58776      6.93456         0.078744     -0.240458     -0.314373
O       5.82893      3.90406     10.96601        -0.136971      0.524748     -0.565425
O       5.80533     15.49336     10.89809         0.055930      0.465860     -0.312228
O       5.65948      7.79444      2.57012         0.621487     -1.080462     -0.296282
O       5.70312      7.67878     15.00119         0.086586      0.603568      0.412036
O       5.90230      7.79407      6.78596         0.249874      0.144721     -0.571993
O       5.99973      7.80081     10.89955        -0.365517     -0.962312     -0.508852
O       5.80074     11.64133      2.42214         0.560002      0.108555      0.073279
O       5.85102     11.62025     14.98965        -0.067445     -0.592342     -0.349327
O       5.79897     11.61741      6.81052         0.103246     -0.012057     -0.103709
O       5.84054     11.63195     11.06589        -0.026162     -0.081960     -0.749378
O       9.90531      3.93775      2.48656        -0.164634     -0.856286      0.129444
O       9.59234      3.95536     15.15803         0.429109     -1.387364     -0.333413
O       9.68337     15.59749      2.53084         0.101034      1.350272      0.368009
O       9.57689      0.06134     14.97191         0.211535     -0.867501     -0.442946
O       9.78238      3.87023      6.75366        -0.185716     -0.600748     -0.434048
O       9.74001     15.54239      6.50675        -0.276173      0.560114      0.379281
O       9.73190      3.83464     10.83610         0.028311      0.162064     -0.252602
O       9.62494     15.57138     10.88557         0.384794     -0.513746      0.239778
O       9.75840      7.92979      2.56465         0.293546     -1.997134      0.496323
O       9.83031      7.76081     15.02489        -0.415243     -0.309257     -0.178489
O       9.79023      7.74489      6.42210        -0.286322      0.294772      0.645995
O       9.74419      7.70761     11.02262         0.085699      0.174126     -0.476500
O       9.52131     11.73049      2.38917         0.701761      0.059560     -0.243265
O       9.74869     11.63820     15.19133         0.268205      0.999615     -0.782917
O       9.75606     11.61626      6.81262        -0.182108      0.373243     -0.085242
O       9.74273     11.62874     10.95833         0.176379      0.252142     -0.800970
