  # total energy = -7879.85940952 
CRSYTAL
PRIMVEC
    15.6080000000000005    0.0000000000000000    0.0000000000000000
     0.0000000000000000   15.6080000000000005    0.0000000000000000
     0.0000000000000000    0.0000000000000000   16.6239999999999988
PRESSURE
-0.780231 -0.962679 -1.69199 0.247377 -0.438776 -0.007345
PRIMCOORD
320 1
Pb       3.74532      3.83320      4.16554         0.002315      0.049480     -0.522356
Pb       3.75092      3.74484     16.53322         0.369005      0.389628      0.280641
Pb       3.92359     15.44935      4.28206        -0.245411     -0.099950     -0.506386
Pb       4.01550      0.00737      0.02976        -0.328938     -0.082503     -0.560654
Pb       0.02214      3.93015      4.16769        -0.374844     -0.087400     -0.770229
Pb       0.00483      3.93855      0.01475         0.203421     -0.197767     -0.226042
Pb       0.06453     15.56439      4.30765         0.150939      0.013500     -0.397930
Pb      15.59848     15.58425      0.01601         0.089763      0.000166     -0.464847
Pb       4.06563      4.00090      8.26870        -0.238327      0.015307     -0.327504
Pb       3.88919     15.49501      8.37252        -0.276446      0.286585     -0.857699
Pb       0.07375      3.93424      8.27871         0.010475      0.171932      0.057724
Pb      15.54831     15.60708      8.38845         0.311703     -0.294849     -0.608102
Pb       3.93812      3.79692     12.36335        -0.384061      0.510873     -0.027354
Pb       3.96619      0.15486     12.41027        -0.113943     -0.298107      0.360250
Pb      15.53954      3.92901     12.46219        -0.081066     -0.292143     -0.652878
Pb      15.56667     15.47325     12.29984        -0.280276      0.929097      0.557320
Pb       3.97446      7.68189      4.14069        -0.302948      0.308607     -0.430074
Pb       3.88462      7.85225      0.05280         0.096329      0.004230     -0.287507
Pb      15.46856      7.71160      4.15057        -0.182237      0.308788     -0.287403
Pb      15.60142      7.77057      0.01341         0.026469     -0.282945      0.123587
Pb       3.83860      7.83047      8.29893         0.338046     -0.196002      0.164931
Pb       0.12203      7.82659      8.09676        -0.520780     -0.263711      0.563881
Pb       3.79448      7.77318     12.43768         0.298648     -0.257316     -0.578975
Pb       0.03592      7.74055     12.37331        -0.019126     -0.333074      0.077760
Pb       3.96588     11.59369      4.26977         0.064546      0.470609     -0.146994
Pb       3.88635     11.67571      0.05289        -0.028357      0.078589     -0.716058
Pb       0.06383     11.62450      4.20796        -0.819521      0.238068     -0.077873
Pb       0.00320     11.55798     16.54321         0.112823      0.569806      0.276613
Pb       3.91194     11.56148      8.41583         0.095876      0.020122     -0.673393
Pb       0.04309     11.73201      8.36653        -0.463886      0.220718     -0.254521
Pb       3.77677     11.68858     12.55647         0.243268     -0.031514     -0.030814
Pb      15.38335     11.82698     12.50231         0.649115     -0.302660     -0.384430
Pb       7.88797      4.02977      4.12252        -0.347778     -0.121725     -0.386846
Pb       7.79403      3.76415      0.10048        -0.181215      0.188526     -0.277085
Pb       7.91582      0.05802      4.21108        -0.390478     -0.444320     -0.199638
Pb       7.80851     15.47969     16.54999        -0.015306     -0.131493     -0.227628
Pb       7.91272      3.88326      8.13590        -0.030600      0.331193     -0.024151
Pb       7.69945      0.01474      8.27452         0.207932     -0.215688     -0.077171
Pb       7.82141      3.99401     12.56668         0.252739      0.089729     -0.631801
Pb       7.75954      0.00601     12.36487         0.306267     -0.122000      0.053046
Pb       7.86043      7.77118      4.18218        -0.253478      0.190323     -0.409097
Pb       7.77460      7.57502      0.08971        -0.019124      0.628460     -0.396039
Pb       7.68875      7.74549      8.33696         0.538210      0.060143     -0.229159
Pb       7.64719      7.98678     12.55726         0.058575     -0.183022     -0.105938
Pb       7.78530     11.61294      4.15905        -0.139793      0.432904     -0.002889
Pb       7.89058     11.61836      0.06796        -0.676002      0.179068     -1.066518
Pb       7.87944     11.59253      8.45671        -0.357255      0.000001     -0.275317
Pb       7.73845     11.83474     12.49105         0.162166     -0.088410      0.430396
Pb      11.56435      3.91110      3.92987         0.516276     -0.167391      0.455661
Pb      11.61143      3.69017     16.54876         0.460570      0.258342      0.253007
Pb      11.91383      0.06572      4.15969        -0.732120      0.011849      0.113934
Pb      11.78996     15.59582     16.59781        -0.315626     -0.015020     -0.064384
Pb      11.67886      3.68382      8.14797        -0.223695      0.717754      0.473369
Pb      11.82783     15.48374      8.35467        -0.232977      0.030289     -0.470467
Pb      11.53088      3.95004     12.33187         0.970841      0.066079      0.142168
Pb      11.66980      0.08813     12.56593         0.047644     -0.419265     -0.263638
Pb      11.65269      8.09269      4.21603         0.290141     -0.409763     -0.458966
Pb      11.77945      7.74173     16.57666        -0.195242     -0.011725      0.295573
Pb      11.71227      7.69509      8.34122        -0.217195      0.110631     -0.208271
Pb      11.86213      7.64611     12.42127        -0.412098      0.496157      0.085682
Pb      11.64598     12.01530      4.08557         0.431956     -1.065548      0.108498
Pb      11.56921     11.68941      0.06777         0.465756      0.144743     -0.535772
Pb      11.52049     11.54238      8.20156         0.483646      0.612575      0.645984
Pb      11.68188     11.53836     12.54742        -0.473760      0.190169     -0.373083
Ti       1.89951      1.89291      2.18773        -0.625407      0.472587      0.427375
Ti       1.83748      1.87870     14.60485         0.174264      0.656322     -0.043198
Ti       1.90046     13.62302      2.20021         0.397611      0.437960     -0.566400
Ti       1.91057     13.62349     14.60301        -0.069631     -0.225938      0.784506
Ti      13.64948      1.93670      2.18959        -0.189978      0.636990     -0.184561
Ti      13.54927      1.94656     14.55083         0.506335      0.367339      0.262249
Ti      13.72543     13.71699      2.14917        -0.002917     -1.001525      0.104259
Ti      13.61792     13.58849     14.69493        -0.212382      0.364347      0.282675
Ti       1.85089      1.97531      6.36876         1.052382     -0.869127      0.034258
Ti       1.90518     13.55430      6.35586         0.313399      1.469998      1.332198
Ti      13.66083      1.99610      6.30763        -0.348528     -0.699843     -0.297689
Ti      13.64672     13.65280      6.35566        -0.107504     -0.590484      0.477850
Ti       1.94555      1.90696     10.51369        -0.628846      0.156474      1.172086
Ti       2.01053     13.62132     10.52790        -1.435912     -0.057770      0.670733
Ti      13.54078      1.97294     10.49033         1.531911      0.014444      1.574040
Ti      13.51879     13.52490     10.54065         0.298435      1.081477     -0.617352
Ti       1.92238      5.94821      2.16378        -0.840987     -1.249381      0.739605
Ti       2.05176      5.76171     14.55382        -0.882849      0.491477     -0.477612
Ti      13.51215      5.87504      2.19501         0.837110     -0.041936     -0.111702
Ti      13.69048      5.82954     14.66027        -0.122381     -0.962728     -0.640444
Ti       1.93070      5.83829      6.21589         1.163668     -0.329940      1.151210
Ti      13.66198      5.78701      6.26819         0.169699      0.679743     -0.218088
Ti       1.95902      5.73732     10.48531         0.301916      0.117155      0.833373
Ti      13.59325      5.86935     10.38136         0.711962     -1.456702     -0.683891
Ti       1.85132      9.80052      2.29016         0.224738     -0.694526     -0.252884
Ti       1.92916      9.65871     14.66113         0.349491      0.932591      0.606119
Ti      13.61296      9.75468      2.28969        -0.806784      0.414207     -0.039372
Ti      13.64525      9.65495     14.72217        -0.053614      0.263577     -0.155280
Ti       1.87319      9.76314      6.29469         0.630878      0.075928     -0.371826
Ti      13.59914      9.74017      6.40867         0.166369      0.127435     -0.679539
Ti       1.87612      9.73283     10.57734         0.095138      0.599538     -0.701029
Ti      13.66320      9.66967     10.40539        -0.641743      0.893654     -0.457802
Ti       5.77132      1.93688      2.22308         0.237227     -0.005011     -0.788107
Ti       5.86472      2.00936     14.61818        -1.001123     -0.721192      0.063727
Ti       5.80675     13.64996      2.25193         0.199076     -0.437044     -0.440352
Ti       5.75866     13.62670     14.66209         0.599229     -0.315599     -0.831796
Ti       5.72527      1.91930      6.24375         0.242368      0.278549      2.100813
Ti       5.79941     13.62902      6.38932         0.128457     -0.732145      0.364151
Ti       5.89521      2.07544     10.42569         0.000206     -0.379774     -0.415935
Ti       5.79606     13.74612     10.57366         0.622446     -0.453174      0.825247
Ti       5.80434      5.89060      2.12918         0.181748     -0.448958     -1.008582
Ti       5.91327      5.90446     14.61525        -0.241682     -0.402092      1.017751
Ti       5.87482      5.92130      6.27466         0.155085     -0.642500      1.307881
Ti       5.91418      5.91159     10.44600        -1.734176      0.737813     -0.229726
Ti       5.78419      9.75702      2.23764         0.432258     -0.150943     -1.171093
Ti       5.82686      9.70610     14.73841         0.677202      1.569236     -0.246280
Ti       5.81374      9.78081      6.30916         0.131539      1.116101      1.271722
Ti       5.74151      9.87830     10.62037         0.053849     -1.278563     -0.813617
Ti       9.66617      1.87569      2.18316         0.112831      0.264960     -0.137442
Ti       9.66416      1.90951     14.63140         0.301797     -0.663330      0.249983
Ti       9.68700     13.65869      2.21615        -0.157009      0.634046     -0.491793
Ti       9.80596     13.64863     14.64363        -0.961130     -0.060355     -0.217935
Ti       9.72158      1.76718      6.37906         0.225625      0.692487     -0.570758
Ti       9.70350     13.58054      6.29395        -0.411577      0.894886      0.521210
Ti       9.78253      1.96919     10.47304        -0.891517     -0.097539     -1.237339
Ti       9.77573     13.64049     10.50397        -1.367517     -0.383160      0.152455
Ti       9.72761      5.92790      2.10479         0.313580     -0.785263      0.329177
Ti       9.82615      5.81578     14.62648        -1.990994      0.786008     -0.689087
Ti       9.92311      5.82095      6.28288        -2.049955      0.279629      1.454535
Ti       9.66411      5.97461     10.47981         0.564583     -1.526369     -1.232489
Ti       9.69867      9.74310      2.12168         0.305637      0.279613      1.565231
Ti       9.76595      9.68547     14.63257        -1.001059     -0.245426      0.079086
Ti       9.69909      9.71464      6.33321        -0.569736     -0.261651      0.177141
Ti       9.67314      9.75776     10.60936         0.804220      0.391768     -1.152507
O       1.91139      2.04119      0.40772        -0.583117     -0.089950     -0.317066
O       1.93318      2.05669     12.82589         0.136420     -0.272010      0.674246
O       1.80691     13.65884      0.41317         0.045406      0.049434      0.164013
O       1.83481     13.63300     12.80699         0.523885     -0.305746      0.813896
O      13.46687      1.85709      0.38961         0.367552      0.473292      0.279545
O      13.48622      2.11853     12.78746        -0.024836     -0.423168      0.251997
O      13.75590     13.76933      0.33763        -0.313508     -0.351090      0.584334
O      13.47172     13.48143     12.92405         0.010243      0.096998     -0.688737
O       1.84792      1.98980      4.55457        -0.024355      0.002489      0.265410
O       1.84430     13.58774      4.60391         0.063333      0.224508     -0.921271
O      13.70619      1.89120      4.51763        -0.298774     -0.130789     -0.602485
O      13.53587     13.60036      4.57269         0.554721      0.648028     -0.214534
O       1.79744      1.83418      8.78074         0.134275      0.170752     -1.340771
O       1.85760     13.63647      8.76959        -0.143850      0.260460     -0.598472
O      13.53283      1.88100      8.72391         0.173398      0.016925     -0.726418
O      13.61468     13.65957      8.73975         0.050003      0.161573      0.211440
O       1.96487      5.77527      0.39607        -0.062762      0.482999     -0.545123
O       1.88175      5.88581     12.70235         0.263313     -0.236017      1.422934
O      13.47090      5.92104      0.39087         0.092559     -0.326957     -0.652328
O      13.59941      5.84334     12.81238         0.233389      0.456310      0.458706
O       2.07021      5.73720      4.45556        -0.336007      0.530746      0.059240
O      13.80627      5.90870      4.47592        -0.689906     -0.146126      0.158160
O       1.88359      5.83813      8.72690         0.085882      0.067573     -1.019436
O      13.67231      5.87095      8.56785         0.071670     -0.483387      0.774432
O       1.91431      9.68726      0.51930        -0.287043      0.058385     -0.537684
O       1.98107      9.76423     12.90365        -0.533763     -0.018252     -0.802602
O      13.49668      9.72848      0.50005        -0.116396     -0.006609     -0.868745
O      13.85624      9.41606     12.97703        -0.429366      0.684981     -0.344386
O       1.83228      9.84013      4.49515         0.373152      0.005904      0.460880
O      13.50416      9.59502      4.56491         0.406779      0.250140      0.713049
O       1.93034      9.65169      8.74788        -0.035116      0.528034     -0.245376
O      13.63290      9.70298      8.60819        -0.019535      0.117586      0.641764
O       5.79621      1.75651      0.38726        -0.004249      0.542252      1.130314
O       5.71031      2.11136     12.78592         0.748164     -0.268220      0.762820
O       5.79571     13.62335      0.40972         0.102993      0.245262      0.423847
O       5.70186     13.60458     12.81747        -0.050944      0.210026      0.743779
O       5.72381      2.02820      4.52325        -0.050581     -0.328263     -1.879277
O       5.71075     13.45491      4.63985        -0.606678      0.559389     -1.064836
O       5.86407      1.94688      8.62975        -0.043534      0.102032      0.522451
O       5.98077     13.87155      8.83166        -0.343534     -0.518664     -1.061895
O       5.68905      6.05401      0.26379         0.536549     -0.280517      1.137578
O       5.93456      5.88043     12.81694         0.287593     -0.275788      0.191278
O       5.98945      6.04589      4.49810        -0.390253     -0.360948      0.217561
O       5.66655      5.96335      8.64427         0.558045      0.034799      0.113163
O       5.82574      9.73447      0.38630        -0.259649      0.126500      0.530105
O       5.93535      9.79234     12.89421        -0.500895     -0.225182     -0.244841
O       5.77858      9.86698      4.54422        -0.171963     -0.253281     -0.860101
O       5.53137      9.77530      8.82151         0.612426      0.264977     -0.162695
O       9.62954      2.06794      0.35696         0.062632     -0.011273      0.251803
O       9.65108      1.77461     12.85666         0.130568      0.687344     -0.754308
O       9.65038     13.72608      0.39966        -0.205640     -0.765809      0.361789
O       9.88881     13.62905     12.87677         0.145760      0.279565     -0.422163
O       9.72427      1.67231      4.54972        -0.102669      0.479788     -0.155859
O       9.74767     13.77644      4.51822        -0.055058      0.307611     -0.366964
O       9.83846      2.05080      8.56072        -0.183156     -0.038193      1.427179
O       9.43512     13.45547      8.73258         0.600862      0.136964     -0.456431
O       9.68390      5.64091      0.34883         0.307164      0.570720     -0.700013
O       9.50562      5.92070     12.76860         0.489157     -0.213513      0.491571
O       9.54998      6.09078      4.56646         0.421484     -0.513500     -0.461336
O       9.75962      5.77853      8.65304         0.231418     -0.060866      0.247030
O       9.74172      9.90873      0.35666         0.300345      0.002432     -0.295905
O       9.63559      9.51551     12.85263         0.087226      0.355072     -0.651478
O       9.64128      9.70862      4.53051         0.220574     -0.350029      0.347784
O       9.67143      9.88208      8.72014         0.333455      0.394920      0.075486
O       3.74486      2.01718      2.38097         1.571782      0.096397      0.579563
O       3.81161      1.99387     15.02155         0.482449     -0.415476     -0.455928
O       3.81519     13.67796      2.52059         0.008440     -0.310648      0.228452
O       3.75017     13.63996     15.03656         0.108828      0.110034     -0.325926
O      15.48387      2.00458      2.41623         0.234599      0.005067     -0.070744
O      15.46152      2.00684     14.91757         0.494995      0.439778      0.149796
O       0.02552     13.80048      2.50897        -1.814283     -0.434312      0.267008
O      15.49966     13.51175     14.86030         0.769764      0.415614      0.176551
O       3.85889      1.97597      6.62053        -0.047301      0.044120     -0.031888
O       3.83036     13.61822      6.67435        -0.527574      0.206025      0.328512
O      15.56776      2.03811      6.66723         0.761675     -0.216692      0.260890
O      15.53825     13.69765      6.75522         0.224729     -0.186162     -0.254191
O       3.93111      1.97689     10.78175        -0.081165     -0.186800     -0.171451
O       3.82592     13.76506     10.68813         1.106888     -0.205701      0.281757
O      15.52778      1.85310     10.89359        -0.280144      0.346894     -0.527405
O      15.52313     13.69279     10.84951        -0.315944     -0.316630     -0.122813
O       3.93725      5.91564      2.46579        -0.933806      0.475941      0.282120
O       3.84632      5.81284     14.81395         0.965033      0.263666     -0.002931
O      15.52020      5.87077      2.31604         0.069168      0.147093      0.465521
O      15.58540      5.79796     14.82414        -0.397708     -0.025963      0.570529
O       3.85439      5.79844      6.65918         0.718862      0.705354     -0.644476
O       0.06127      5.81087      6.41684        -0.141122      0.164747      0.708483
O       3.89804      5.89696     10.76934        -0.582256      0.066011      0.252688
O       0.01902      5.66298     10.71804        -0.917822      0.642244      0.232814
O       3.78900      9.64170      2.42238         0.822286      0.333233      0.627526
O       3.88003      9.79181     15.05439        -0.325596     -0.547423     -0.109499
O      15.47860      9.76790      2.52673         0.377644     -0.167666      0.132133
O      15.58175      9.63642     15.22269        -0.056850      0.219830     -0.879745
O       3.86698      9.96725      6.58968        -0.893355     -0.694482     -0.103507
O      15.55509      9.67370      6.46947         0.693011     -0.138865      0.683238
O       3.81917      9.76039     10.89443         0.045838      0.340249      0.395263
O      15.50921      9.82417     10.70966         0.489856     -0.358955      0.423961
O       7.68564      2.08336      2.45253        -0.076999     -0.255553      0.307290
O       7.73641      1.85434     15.00685        -0.150078      0.239334     -0.383486
O       7.67667     13.70367      2.67952         0.749068     -0.241158     -0.564306
O       7.79247     13.53199     14.84181        -0.739382      0.605899      0.380041
O       7.77533      1.79524      6.57280         0.062233      0.462663     -0.054996
O       7.68465     13.66992      6.44463         1.324422      0.492763      0.596236
O       7.80421      1.94376     10.72309        -0.091177      0.186666      0.112249
O       7.82996     13.64949     11.04189        -1.220748      0.036400     -0.448038
O       7.82568      5.88682      2.42162        -0.449946      0.022087     -0.042636
O       7.76025      5.92159     15.05792        -0.490893     -0.615786     -0.532210
O       7.80564      5.92240      6.83315        -0.824746      0.100495     -0.951828
O       7.76686      5.87404     10.56044         0.137960     -0.050298      0.419707
O       7.70176      9.84053      2.45224         1.392118     -0.168758     -0.039915
O       7.77243      9.84199     14.91492        -0.167668      0.104002      0.554456
O       7.76606      9.87392      6.56128        -0.073892     -0.273786      0.420967
O       7.82844      9.86428     10.63264        -1.718328     -0.511701      0.816159
O      11.55031      1.90927      2.47502         0.485042      0.020440      0.199246
O      11.60846      1.90779     14.95484        -0.400282      0.027003      0.000360
O      11.63837     13.78927      2.41119        -0.074904     -0.403462      0.081473
O      11.66273     13.72207     15.11754         0.624368     -0.568714      0.011951
O      11.74260      1.97706      6.57972        -0.257357     -0.266508     -0.108765
O      11.68978     13.61374      6.60094        -0.020848      0.173935      0.503209
O      11.65824      1.93165     10.81481        -0.941740     -0.099045      0.011021
O      11.59708     13.61544     10.58774         1.141395     -0.161003      0.416985
O      11.63839      5.97140      2.49890        -0.990832     -0.515898      0.278678
O      11.59851      6.00244     14.68886         0.642059     -0.123995      0.548876
O      11.73247      5.73128      6.50855         0.418130      0.592330     -0.017343
O      11.70584      5.82455     10.66577         0.002789      0.420986      0.657879
O      11.63451      9.88794      2.66592        -1.272193     -0.505307     -0.780948
O      11.69060      9.66445     14.68297         0.001680     -0.067264      0.860978
O      11.69108      9.81690      6.70828        -0.682197     -0.589887     -0.540591
O      11.65538      9.85847     10.84400         0.946231     -0.886510     -0.001755
O       1.77503      3.97423      2.57419         0.733609     -0.476667     -0.359294
O       1.97483      3.89016     14.93619        -0.727061      0.402952      0.048452
O       1.80279      0.03015      2.60448         0.482310      0.113414     -0.236383
O       1.82161      0.06102     15.02838        -0.067509     -1.211807     -0.465989
O      13.42531      3.93393      2.44552         0.374873     -0.712786     -0.067046
O      13.34171      3.92625     14.89130         0.836056      0.454230      0.457512
O      13.57918     15.58385      2.44283         0.202425      0.424655      0.313989
O      13.55767      0.03248     14.82500         0.049745     -0.511422      0.123047
O       2.04219      3.89059      6.64753        -0.791626      0.100006      0.071368
O       1.90646     15.55670      6.67953        -0.229299      0.823038     -0.184881
O      13.73247      3.88043      6.42280        -0.159607      0.716918      0.888832
O      13.73989      0.07215      6.59431        -0.530746     -1.232198      0.373546
O       1.99277      3.82444     10.77592        -0.188602      0.674579     -0.154981
O       1.98677      0.05205     11.02868        -0.282993     -0.705916     -0.915991
O      13.52636      3.89927     10.71254         0.293282     -0.190182     -0.069504
O      13.43801     15.54999     11.03314         0.539351     -0.039192     -0.945392
O       1.74117      7.80952      2.62278         0.761006     -0.259295     -0.420919
O       1.94613      7.82764     14.85769        -0.102208     -1.471129      0.460902
O      13.40705      7.80659      2.48292         0.787158      0.481054      0.223089
O      13.57622      7.71921     15.10597         0.419555      0.282694     -0.203028
O       2.02561      7.83122      6.54409        -0.285188     -0.305391     -0.134301
O      13.65042      7.72284      6.73518        -0.205437      0.272350     -0.612726
O       1.86877      7.89672     10.81675         0.043659     -1.238995      0.205775
O      13.63445      7.79110     10.64197         0.021965     -0.391991      0.500577
O       1.73878     11.72711      2.54998         0.557073     -0.264423     -0.356122
O       1.93592     11.62649     15.03309        -0.433171      0.758564     -0.188479
O      13.53146     11.71508      2.62209         0.539114      1.014259     -0.729667
O      13.58568     11.60109     14.93029        -0.042303      0.052116      0.274472
O       1.79462     11.69952      6.65671        -0.104820     -0.687146      0.182422
O      13.75622     11.65577      6.70013        -0.320421      0.269537     -0.273943
O       1.88609     11.72472     10.80064         0.187620      0.032064      0.213700
O      13.62938     11.64433     10.86335        -0.208021      0.308674      0.051863
O       5.84622      4.02894      2.43600        -0.197995     -1.271776     -0.006297
O       5.91014      3.83590     15.02682        -0.185896      0.812787     -0.385548
O       5.70268     15.52924      2.54535         0.036330      1.684793      0.236208
O       5.65071     15.57171     14.83133         0.490368      0.354624      0.417283
O       5.86343      4.00870      6.55243         0.058107     -0.551680      0.043496
O       5.67991      0.01088      6.62519         0.208248     -0.059763     -0.208513
O       5.78622      3.99448     10.64424         0.282055     -0.857737      0.314449
O       5.80526      0.03187     10.82679         0.247415      0.518078      0.240298
O       5.93732      7.80217      2.49478        -0.600404      0.744415      0.193205
O       5.85206      7.84429     14.87660        -0.233696     -0.881187     -0.036646
O       5.79424      7.94909      6.63557        -0.134078     -1.272109     -0.029419
O       5.76777      7.87236     10.74331         0.534949     -0.290543      0.651532
O       5.88227     11.68787      2.56568        -0.997676     -0.157160     -0.302530
O       5.64571     11.74737     14.89462         0.168897     -0.363064      0.540048
O       5.70626     11.73689      6.77157         0.542939     -0.129114      0.238196
O       5.72872     11.75894     10.83824         0.121574      0.142986     -0.157885
O       9.72316      3.98670      2.54605        -0.282566     -0.616659      0.173514
O       9.64576      3.88629     14.72402         0.029174      0.197559      0.370134
O       9.50592      0.04454      2.30634        -0.000943     -0.332899      0.362681
O       9.70910      0.00219     14.90118        -0.203513     -0.204057      0.558737
O       9.75674      3.91650      6.41412        -0.462607     -0.161326      0.296055
O       9.84852     15.58026      6.75142        -0.366281     -0.723032      0.040585
O       9.78158      3.89311     10.76797        -0.570984     -0.716297      0.338866
O       9.65100     15.54716     10.67191         0.357278      1.075863      0.158235
O       9.66399      7.83681      2.33701         0.071530      0.877932     -0.084015
O       9.59355      7.80560     15.04347         0.426378     -0.130803      0.079122
O       9.73730      7.85975      6.81933         0.312234     -0.202472     -0.729892
O       9.81241      7.74608     10.54586        -0.154672      1.736514      0.620539
O       9.69060     11.76899      2.52980        -0.173814     -0.102133     -0.487864
O       9.78917     11.71929     14.84002         0.431747     -0.809558      0.748637
O       9.71022     11.74056      6.43812         0.184701     -0.611519      0.720386
O       9.70659     11.65921     10.92051         0.146527      0.297483      0.234431
