  # total energy = -7881.09803053 
CRSYTAL
PRIMVEC
    15.6080000000000005    0.0000000000000000    0.0000000000000000
     0.0000000000000000   15.6080000000000005    0.0000000000000000
     0.0000000000000000    0.0000000000000000   16.6239999999999988
PRESSURE
-1.04634 -1.34947 -2.03454 0.215202 -0.440571 -0.031954
PRIMCOORD
320 1
Pb       3.75093      3.83234      4.15835         0.040671     -0.193908     -0.154868
Pb       3.75687      3.75278     16.52459         0.618803      0.452659      0.353749
Pb       3.91814     15.45158      4.26708        -0.027489      0.208162     -0.678869
Pb       4.01335      0.00718      0.01623        -0.275121     -0.089781     -0.568737
Pb       0.02514      3.93671      4.16234        -0.129842     -0.154493     -0.328489
Pb       0.01007      3.93022      0.01625         0.052902     -0.105351     -0.194161
Pb       0.05935     15.55534      4.30166         0.034521     -0.046283     -0.704256
Pb      15.59966     15.59117      0.00336        -0.153900     -0.224623      0.022495
Pb       4.06165      3.98687      8.26053        -0.228686      0.067515     -0.568840
Pb       3.88873     15.47387      8.34421        -0.350194      0.368064     -0.788191
Pb       0.05970      3.93298      8.28504         0.369150     -0.067988     -0.328976
Pb      15.54264     15.59033      8.38402         0.123922     -0.171733     -0.567139
Pb       3.93139      3.78529     12.36807        -0.066409      0.756537      0.314045
Pb       3.97176      0.15138     12.42468        -0.289872     -0.174430      0.430584
Pb      15.54781      3.95042     12.47692        -0.128417     -0.231374     -0.448495
Pb      15.58745     15.46601     12.30205        -0.638289      0.638816      0.813102
Pb       3.97448      7.68977      4.11361        -0.244667      0.409619     -0.145060
Pb       3.88901      7.85023      0.05040        -0.021450      0.053792     -0.552979
Pb      15.46491      7.71411      4.14826        -0.176588      0.192866     -0.414815
Pb      15.59743      7.76563      0.01443         0.008535     -0.136050     -0.261110
Pb       3.82527      7.82537      8.30514         0.271474     -0.449203     -0.174467
Pb       0.09747      7.80684      8.12310        -0.433402     -0.009664      0.497006
Pb       3.80448      7.76928     12.42162         0.328540     -0.429795     -0.067469
Pb       0.03009      7.74009     12.36950        -0.599286      0.114029      0.198271
Pb       3.95576     11.60154      4.26147        -0.052786      0.232595     -0.657303
Pb       3.88141     11.68650      0.05877        -0.194009     -0.238687     -0.460491
Pb       0.05702     11.61885      4.19723        -0.813805      0.515667     -0.160655
Pb      15.60759     11.55519     16.54002        -0.133750      0.468986      0.305235
Pb       3.91789     11.58078      8.42328        -0.239295      0.247597     -0.650117
Pb       0.05352     11.73558      8.35234        -0.539839      0.147196     -0.118778
Pb       3.77822     11.67978     12.54740         0.012230      0.074824     -0.354663
Pb      15.39599     11.83727     12.50605         0.337483     -0.514599     -0.196015
Pb       7.88326      4.01645      4.11701        -0.423232     -0.331930     -0.299866
Pb       7.80355      3.77379      0.08927        -0.172485      0.253250     -0.271234
Pb       7.91385      0.05760      4.21517        -0.370849     -0.569742     -0.356933
Pb       7.80822     15.49318     16.54542         0.023656     -0.258408     -0.159932
Pb       7.91932      3.86900      8.15192        -0.350516      0.457692     -0.110758
Pb       7.69953      0.01846      8.25226         0.153162     -0.368993      0.137523
Pb       7.82605      3.97103     12.57029         0.515366      0.189082     -0.758858
Pb       7.75493     15.60330     12.35638         0.575807      0.325636      0.266707
Pb       7.87743      7.77253      4.18509        -0.344835      0.204473     -0.565190
Pb       7.75083      7.56741      0.09165         0.230032      0.929460     -0.691461
Pb       7.69718      7.74152      8.32259         0.230275     -0.067664     -0.203590
Pb       7.64213      7.98453     12.54733         0.296484     -0.430537      0.070703
Pb       7.78983     11.61370      4.15722         0.070520      0.358838     -0.331324
Pb       7.88006     11.64059      0.05836        -0.341552     -0.155850     -0.624557
Pb       7.89774     11.59821      8.45257        -0.165643      0.152671     -0.459137
Pb       7.74558     11.83851     12.48581         0.272104     -0.151083      0.184077
Pb      11.57150      3.89361      3.94150         0.531043     -0.062915      0.065890
Pb      11.61397      3.70227     16.57512         0.425715      0.135789     -0.104225
Pb      11.89232      0.04591      4.15954        -0.360127     -0.097963     -0.262503
Pb      11.78804     15.59694     16.58534        -0.341297      0.017328     -0.027774
Pb      11.67365      3.70776      8.17033        -0.106892      0.560109      0.359641
Pb      11.82662     15.50002      8.36253         0.131709     -0.243506     -0.240663
Pb      11.54321      3.94837     12.32875         0.331131      0.052345      0.371458
Pb      11.64245      0.08894     12.55634         0.032388     -0.373285     -0.071022
Pb      11.65223      8.09545      4.22354         0.516178     -0.597610     -0.354004
Pb      11.78863      7.74152     16.58550        -0.109602      0.289086     -0.238768
Pb      11.71032      7.68421      8.35794         0.099449      0.497577     -0.417813
Pb      11.84781      7.67821     12.42884        -0.279784      0.464126      0.191302
Pb      11.67105     11.99235      4.08349         0.279552     -0.870973      0.043855
Pb      11.55311     11.67636      0.06604         0.547075      0.115842     -0.649757
Pb      11.52727     11.56652      8.22727         0.397007      0.303983      0.404713
Pb      11.68393     11.54185     12.54650        -0.150912      0.166889     -0.170525
Ti       1.90089      1.90688      2.18988        -0.447319      0.036937      0.222006
Ti       1.83470      1.84961     14.63967         0.316476      0.350237     -0.044541
Ti       1.93809     13.59933      2.21640        -0.659177      0.425205      0.601021
Ti       1.93442     13.60116     14.61652        -0.773958      0.136784      0.618895
Ti      13.62744      1.94346      2.16842         0.132522      0.035097     -0.310252
Ti      13.54932      1.98249     14.55186        -0.285190     -0.094195      1.546865
Ti      13.72991     13.69650      2.17560         0.299820     -0.734748     -0.249839
Ti      13.61941     13.64958     14.71674        -0.303929     -0.503034     -0.369145
Ti       1.85052      1.96349      6.38748         0.725254     -0.121099      0.435336
Ti       1.89760     13.60146      6.35835         0.037676      0.677235      0.222783
Ti      13.62755      2.01354      6.28102         1.358381     -0.924133     -0.194879
Ti      13.64751     13.65905      6.38445         0.025899     -0.601764     -0.633953
Ti       1.94452      1.93187     10.53029        -0.515554     -0.091396     -0.535825
Ti       1.98201     13.66110     10.53111        -1.318194     -0.576082      0.602824
Ti      13.58536      1.98276     10.52606         0.678743     -0.690798      0.276936
Ti      13.54903     13.52026     10.56678         0.222518      1.242484     -0.505845
Ti       1.95199      5.91042      2.17862        -1.335853     -0.615312     -0.071302
Ti       2.04036      5.73399     14.57056         0.282838      1.177098      0.012143
Ti      13.54033      5.88566      2.16124         0.387857      0.224957     -0.411156
Ti      13.68929      5.82441     14.62212        -0.862783      0.144396      0.669952
Ti       1.90847      5.88743      6.22635         1.333020     -1.066950      0.271498
Ti      13.64509      5.78350      6.28697         0.734105      1.239127     -0.713594
Ti       1.96705      5.72722     10.51952         0.021162      0.413015     -0.687736
Ti      13.61428      5.83054     10.35658         0.192007     -0.247771      1.221039
Ti       1.83759      9.74887      2.29482         0.823876     -0.215847     -0.806589
Ti       1.95293      9.68581     14.65257        -0.200865     -0.177924      0.854985
Ti      13.61581      9.75854      2.25333        -1.069096      0.513455     -0.287164
Ti      13.66038      9.68353     14.68413        -0.496228      0.129951      0.050726
Ti       1.86392      9.78602      6.28431         0.308883      0.018805     -0.242438
Ti      13.61121      9.76715      6.41933        -0.402869     -0.182234     -0.206142
Ti       1.90364      9.71384     10.60122        -1.102829      0.847537     -0.911309
Ti      13.63576      9.67291     10.38871        -0.284394      0.605328      0.623584
Ti       5.79760      1.94123      2.21148        -0.034891     -0.147289      0.950242
Ti       5.85905      2.02035     14.60200        -1.130764     -0.175962      0.092704
Ti       5.80717     13.64524      2.21168         0.664392     -0.185927      0.392617
Ti       5.78335     13.61052     14.61694         0.624830      0.247369      0.644425
Ti       5.73095      1.89370      6.27373        -0.166368      0.930412      0.197948
Ti       5.81811     13.62119      6.39207         0.263915     -0.309955      1.342129
Ti       5.85819      2.05059     10.45283         0.482118      0.178162     -0.230691
Ti       5.77986     13.74751     10.57528         1.010282     -0.492241     -0.210584
Ti       5.81843      5.86144      2.12962         0.151884     -0.162109     -0.546227
Ti       5.90327      5.90458     14.59367        -0.440471     -0.112776      1.364562
Ti       5.89654      5.94075      6.29612        -0.292769     -0.935599      1.020651
Ti       5.87697      5.89345     10.46067        -0.243203      0.083667      0.463943
Ti       5.79051      9.72390      2.20357         0.273928      0.257432     -1.028146
Ti       5.83924      9.74680     14.71652         0.579031      0.378168      0.927992
Ti       5.75644      9.84281      6.31292         0.585467     -0.308330      0.499114
Ti       5.73095      9.83354     10.58301         0.375093     -0.535745     -0.502948
Ti       9.65598      1.87858      2.17285         0.336034      0.277108      0.259770
Ti       9.63508      1.90555     14.66829         1.075200      0.000123     -0.592536
Ti       9.69045     13.68626      2.19719        -0.094518     -0.099194     -0.185453
Ti       9.78388     13.65800     14.64624        -0.238919     -0.177631      0.006464
Ti       9.75540      1.75100      6.35825        -0.419930      0.864946     -0.975555
Ti       9.73230     13.58671      6.31202        -0.671772      0.160972     -0.504085
Ti       9.76453      1.98255     10.41798        -1.277291      0.051369     -0.083516
Ti       9.79171     13.64484     10.50995        -0.868391     -0.365288     -0.412604
Ti       9.75558      5.91854      2.12693         0.342482     -0.373259      0.117710
Ti       9.80032      5.83096     14.62018        -0.862594      0.669777     -0.587603
Ti       9.90946      5.81094      6.29666        -1.727947      0.073171      0.907038
Ti       9.69062      5.95365     10.44482        -0.182344     -0.961445     -0.838198
Ti       9.74165      9.75565      2.16776        -0.565434      0.429335      0.246995
Ti       9.75337      9.69177     14.64518        -0.065123     -0.610891      0.273953
Ti       9.66225      9.67806      6.31391         0.215010      1.232460      1.030258
Ti       9.63809      9.74268     10.61941         1.292653      0.716596     -1.068950
O       1.92718      2.02353      0.38292        -0.434107     -0.139301     -0.198710
O       1.98302      2.03769     12.85758        -0.198234     -0.328929      0.953204
O       1.84815     13.58118      0.47741         0.033123      0.181158     -0.811256
O       1.82791     13.65723     12.81652         0.636064     -0.340379      0.801569
O      13.47281      1.83436      0.34972         0.379241      0.528835      0.721316
O      13.44879      2.13579     12.83502         0.197785     -0.302556     -1.395895
O      13.74684     13.70944      0.33651        -0.357618     -0.012651      0.565047
O      13.49479     13.52235     12.89509         0.218246      0.055891      0.138261
O       1.77573      1.98371      4.61197         0.375992     -0.257875     -0.561494
O       1.77372     13.63604      4.55462         0.387751     -0.009289      0.341647
O      13.66996      1.89999      4.50499        -0.321231      0.092520     -0.535140
O      13.58316     13.56779      4.53448         0.121797      0.795732      1.006319
O       1.78479      1.89580      8.74169         0.211547      0.034831      0.085402
O       1.82399     13.72244      8.76442         0.084130     -0.076326      0.078416
O      13.56832      1.82191      8.70525        -0.015665      0.434613      0.696578
O      13.66258     13.67511      8.74987        -0.203633      0.290575      0.190120
O       1.98084      5.80046      0.36733        -0.052532     -0.020011      0.222856
O       1.95966      5.77544     12.73167        -0.178120     -0.006204      1.043659
O      13.42731      6.00997      0.33751         0.460695     -0.931461      0.604221
O      13.61221      5.84872     12.83182         0.217542      0.163395     -0.343860
O       2.02365      5.73127      4.41485        -0.511103      0.875025      1.152733
O      13.83999      5.91696      4.49431        -0.766560     -0.214208     -0.163324
O       1.84372      5.87885      8.67847         0.222081     -0.211686      0.816167
O      13.69038      5.80723      8.61385         0.064767     -0.317328     -0.514070
O       1.92411      9.73849      0.50711        -0.295581      0.025899     -0.380827
O       1.94103      9.72822     12.87553        -0.163148      0.003157     -0.146340
O      13.48901      9.76355      0.45146        -0.131416      0.127056      0.221614
O      13.76167      9.48186     12.92660        -0.081296      0.326162     -0.649094
O       1.82899      9.83749      4.48558         0.324714     -0.083753      0.496863
O      13.51940      9.61949      4.60856         0.391073      0.155740      0.162783
O       1.90208      9.62444      8.76704         0.131205      0.559913      0.251539
O      13.64454      9.69886      8.61938         0.000540      0.009467     -0.040499
O       5.83415      1.83648      0.45741        -0.238830      0.105438     -0.894923
O       5.62813      2.06594     12.77448         1.092104     -0.114426      1.177175
O       5.88600     13.69005      0.43944        -0.275292      0.055153     -0.283966
O       5.75801     13.64780     12.84117        -0.330737     -0.136621     -0.304674
O       5.67670      2.01936      4.49414         0.250515     -0.375382      0.193046
O       5.68934     13.48058      4.68944        -0.548523      0.282924     -2.166007
O       5.80934      1.98080      8.66654         0.188192     -0.172848      0.086379
O       5.96974     13.90249      8.77845        -0.616012     -0.592137      0.502882
O       5.74486      6.07704      0.27063         0.374605     -0.619426      2.088450
O       5.87904      5.85134     12.83336         0.403783     -0.015268     -0.776382
O       5.95955      6.08419      4.51336        -0.265922     -0.660031      0.144460
O       5.76223      5.95376      8.69849         0.135904     -0.109123     -0.682416
O       5.83328      9.65481      0.35588        -0.275426      0.319329      0.898594
O       5.94711      9.74274     12.91481        -0.571907      0.193787     -1.044862
O       5.74175      9.89285      4.50950        -0.162888     -0.362989      0.759856
O       5.53235      9.85134      8.78753         0.582230     -0.325873      0.166622
O       9.64382      2.03968      0.35807        -0.034000      0.098328     -0.000763
O       9.65346      1.84880     12.89440        -0.056884      0.248019     -1.200119
O       9.64951     13.70621      0.35932        -0.221490     -0.503301      0.672576
O       9.87383     13.66779     12.87502        -0.091022      0.136033     -0.336978
O       9.70748      1.72160      4.47858         0.198514      0.410245      1.113439
O       9.65527     13.80075      4.46117         0.540157     -0.026882      0.916682
O       9.81851      2.06386      8.55545         0.041929     -0.230405      0.744360
O       9.52199     13.49441      8.66564         0.371078      0.147450      0.639688
O       9.66785      5.66571      0.35591         0.293840      0.357511     -0.330575
O       9.54703      5.93387     12.79240         0.368913     -0.264497      0.025474
O       9.64754      6.07776      4.55083         0.233101     -0.621092      0.150878
O       9.75930      5.76437      8.61830         0.515685      0.209112      0.259970
O       9.70519      9.91666      0.34678         0.431671     -0.098864      0.824651
O       9.64843      9.52734     12.83480        -0.186499      0.401587     -0.406352
O       9.63752      9.74299      4.54442         0.147833     -0.476954     -0.270348
O       9.68489      9.99165      8.71895        -0.035241     -0.241229      0.684673
O       3.75992      2.05101      2.44767         0.960678     -0.057012      0.196851
O       3.87415      1.98204     15.00572        -0.075279     -0.443380     -0.175552
O       3.83918     13.66391      2.49365         0.285380     -0.141001      0.317077
O       3.74482     13.64272     15.08649         0.927937     -0.124633     -0.475941
O      15.49734      1.94249      2.38601        -0.062321      0.461730     -0.030533
O      15.44624      1.97139     14.95872         1.290828      0.240596     -0.140435
O      15.58658     13.78305      2.48645        -0.563729     -0.478522      0.208651
O      15.51613     13.50455     14.88827         0.642258      0.601024      0.112545
O       3.85528      1.98288      6.65601         0.077485     -0.199522     -0.015057
O       3.78779     13.60203      6.72621         0.140766      0.161276      0.114527
O      15.59674      2.09040      6.62449        -0.192040     -0.477472      0.496502
O      15.50447     13.70782      6.75678         0.779759     -0.634520     -0.173671
O       3.91950      2.03253     10.78729        -0.654098     -0.739004     -0.282286
O       3.83041     13.69771     10.76622         0.723327      0.179299      0.059749
O      15.50440      1.89468     10.91801        -0.230183      0.301306     -0.454685
O      15.54527     13.65185     10.86126         0.047021      0.250925     -0.088657
O       3.82567      5.87652      2.55322         1.536790      0.271164     -0.487259
O       3.94390      5.84458     14.83376        -1.255068     -0.215463     -0.021466
O      15.55147      5.95636      2.28289        -0.528837     -0.409957      0.471301
O      15.54925      5.85119     14.84785         0.665785     -0.636515      0.354151
O       3.92573      5.85623      6.71723        -0.099102      0.430019     -0.714730
O       0.05641      5.81513      6.42104         0.077555      0.368335      0.771109
O       3.89908      5.86630     10.80078        -1.028307      0.221763     -0.114426
O       0.00276      5.68452     10.80369        -0.349942      0.420531     -0.092211
O       3.81040      9.66796      2.41179         0.465001      0.152256      0.658988
O       3.86089      9.79085     15.08249        -0.444502     -0.270858     -0.449506
O      15.44817      9.71022      2.46211         0.845689      0.176217      0.399956
O      15.56716      9.65626     15.18035         0.860981      0.134742     -0.777500
O       3.80668      9.98272      6.58924         0.125954     -0.700216     -0.019098
O      15.56082      9.70396      6.47773         0.745385     -0.244132      0.752551
O       3.81172      9.79078     10.92623         0.229829     -0.089335      0.153243
O      15.46369      9.76178     10.77825         1.394657     -0.193562      0.215617
O       7.71312      2.02298      2.41530         0.384260     -0.027929      0.487604
O       7.70578      1.91554     14.95345        -0.463005     -0.079177     -0.015193
O       7.70507     13.68019      2.61131         0.025059     -0.155207     -0.350612
O       7.81897     13.60365     14.87160        -0.781905      0.122539      0.112322
O       7.79121      1.78312      6.57705         0.127345      0.339958     -0.099666
O       7.69881     13.66809      6.45003         0.984444      0.544955      0.705183
O       7.80436      1.95123     10.74208        -0.244927      0.087183      0.000492
O       7.76728     13.68878     11.03783        -0.713156     -0.374663     -0.743868
O       7.84174      5.85475      2.46829        -0.951082      0.333763     -0.152982
O       7.79182      5.96856     14.94697        -0.465431     -0.501102      0.020689
O       7.86085      5.89929      6.80527        -0.837240      0.177429     -0.814630
O       7.78699      5.83954     10.55972         0.024839      0.211293      0.519961
O       7.70867      9.79393      2.51665         1.253008     -0.179661     -0.094373
O       7.72823      9.84973     15.01732         0.399916     -0.062811     -0.206397
O       7.72818      9.87367      6.57998        -0.140118     -0.239149      0.302301
O       7.76376      9.82854     10.68766        -0.805000     -0.236733      0.406735
O      11.62231      1.91286      2.42689        -0.298687     -0.034802      0.444724
O      11.60004      1.92391     14.90230        -0.113566      0.144499      0.454402
O      11.62387     13.71479      2.37097        -0.064704      0.031242      0.318465
O      11.66898     13.70198     15.08713         0.053517     -0.483265      0.028681
O      11.80151      1.92377      6.59084        -1.606222      0.086701      0.009827
O      11.67943     13.62417      6.63566         0.058675      0.384952      0.146942
O      11.58950      1.93218     10.83488         0.397992      0.049189     -0.295771
O      11.63262     13.57990     10.64468        -0.079326      0.054785      0.136896
O      11.64641      5.94993      2.51386        -0.544476     -0.584478      0.189128
O      11.63884      5.99927     14.68384        -0.281878     -0.231226      0.583556
O      11.77403      5.73329      6.54091        -1.066050      0.349110      0.134387
O      11.68489      5.88115     10.68663         0.140756     -0.151451      0.239855
O      11.62078      9.85943      2.70630        -0.615381     -0.141501     -0.883491
O      11.70331      9.61087     14.73033        -0.817811      0.313461      0.607412
O      11.69359      9.80906      6.72696        -0.841029     -0.675140     -0.444569
O      11.70849      9.89471     10.82861        -0.127509     -0.927048     -0.143240
O       1.78950      3.90999      2.58938         0.353754      0.070494     -0.607231
O       1.95121      3.85911     14.98153        -0.600202      0.253985     -0.141926
O       1.80814      0.03853      2.57784         0.622141     -0.066292     -0.186695
O       1.88246     15.57075     15.05863        -0.242845      0.419900     -0.535409
O      13.39942      3.93896      2.36908         0.672871     -0.364463      0.059782
O      13.36694      3.92578     14.92631         0.943360      0.237187      0.316543
O      13.63138     15.58347      2.51125        -0.395535      0.423368      0.057944
O      13.47123      0.02196     14.86723         0.668398     -0.396033     -0.161382
O       2.01455      3.91979      6.53474        -0.352237      0.312795      0.546158
O       1.87972     15.50255      6.69606        -0.052246      1.343404     -0.184767
O      13.75658      3.91335      6.44487        -0.401276     -0.438408      0.884501
O      13.79204      0.02441      6.59500        -0.861095     -0.268939      0.180801
O       1.97902      3.80321     10.75781        -0.377790      1.336024      0.012335
O       1.93438      0.08311     11.03983         0.186549     -0.981289     -1.098440
O      13.54941      3.90428     10.72810         0.007687     -0.564715     -0.095373
O      13.45339     15.52959     11.04433         0.548162      0.824705     -0.936729
O       1.77918      7.83521      2.56752         0.665173     -0.706164     -0.118180
O       1.93253      7.73331     14.90823         0.087277      0.106030     -0.036551
O      13.42675      7.83335      2.46609         0.501024      0.094521      0.353277
O      13.61372      7.77955     15.10976         0.333588     -0.571575     -0.428861
O       2.02232      7.84029      6.60493        -0.275655     -0.119569     -0.389531
O      13.61117      7.69428      6.72959         0.062954      0.436976     -0.198228
O       1.84952      7.84234     10.84575         0.425227     -0.945512      0.054412
O      13.61314      7.75990     10.64851         0.073969     -0.337891      0.194597
O       1.77797     11.70907      2.56037         0.293745     -0.249828     -0.127866
O       1.93483     11.63117     15.00589        -0.226725      0.415550     -0.305587
O      13.57079     11.74736      2.63749         0.255389      0.048242     -0.745183
O      13.57498     11.59273     14.87443         0.022657      0.677917      0.422611
O       1.82784     11.71770      6.69533        -0.387194     -0.653320      0.061212
O      13.70401     11.64906      6.71640         0.005514      0.529957     -0.219220
O       1.85333     11.72060     10.84317         0.404645      0.099532     -0.121353
O      13.64767     11.69009     10.81860        -0.008192     -0.389029      0.160622
O       5.92379      3.96571      2.44941        -0.579864      0.466822     -0.204299
O       5.88766      3.91193     15.06542         0.004423     -0.519307     -0.666786
O       5.71950     15.59729      2.58310        -0.063159      0.106282      0.005700
O       5.70830     15.52074     14.83216         0.202819      1.142454      0.559802
O       5.83686      3.97006      6.57465         0.304056     -0.363865      0.102322
O       5.65803     15.59789      6.61235         0.266562      0.104601     -0.046086
O       5.76225      3.98354     10.72284         0.370614     -0.939623      0.136078
O       5.79841      0.08824     10.85389        -0.049098     -0.563211      0.002277
O       5.92864      7.82179      2.52604        -0.707482     -0.777023     -0.011472
O       5.79772      7.86587     14.88448         0.055818     -0.723628     -0.121929
O       5.79967      7.87059      6.64222        -0.038753      0.530058      0.055372
O       5.80418      7.82421     10.70864        -0.006096      0.810068      0.731116
O       5.83979     11.62381      2.53689        -0.659729      1.235882     -0.314285
O       5.71002     11.75150     14.94874        -0.079219     -0.239864      0.206971
O       5.75639     11.72504      6.80570         0.025331     -0.224884     -0.023576
O       5.71562     11.74573     10.82450         0.193083      0.250631      0.027945
O       9.70412      3.94822      2.54981         0.076259     -0.424380      0.135657
O       9.61221      3.84777     14.69091         0.098181      1.222631      0.822277
O       9.54301      0.04113      2.36457         0.136100     -0.497078     -0.035921
O       9.70648      0.03515     14.91189        -0.243515     -1.039115      0.538625
O       9.69749      3.90448      6.44940         0.338588     -0.179963      0.121112
O       9.82917     15.57157      6.72548        -0.161679     -0.061296     -0.034965
O       9.71595      3.92048     10.73199         0.049257     -0.685918      0.367205
O       9.64313     15.53399     10.70450         0.382285      0.976914     -0.083514
O       9.74639      7.82984      2.38468        -0.321364      0.565140     -0.055996
O       9.65204      7.81628     15.05728        -0.051444     -0.233691     -0.016985
O       9.68239      7.90494      6.77461         0.552758     -1.344965     -0.319436
O       9.78412      7.81240     10.58333        -0.206027      0.446250      0.161389
O       9.69846     11.71546      2.51341        -0.229913      0.505801     -0.317200
O       9.80518     11.66165     14.83380         0.101904      0.229628      0.482471
O       9.73751     11.74548      6.46617        -0.076113     -0.270282      0.473097
O       9.69808     11.68660     10.95475        -0.279131      0.161293      0.045542
