  # total energy = -7877.10256401 
CRSYTAL
PRIMVEC
    15.6080000000000005    0.0000000000000000    0.0000000000000000
     0.0000000000000000   15.6080000000000005    0.0000000000000000
     0.0000000000000000    0.0000000000000000   16.6239999999999988
PRESSURE
0.030027 -0.572745 -0.416731 -0.048722 -0.276996 0.053819
PRIMCOORD
320 1
Pb       4.02191      4.00146      4.15383        -0.493654     -0.781215     -0.072681
Pb       4.09510      4.09972      0.15742        -0.457096     -0.178097     -0.366365
Pb       3.86509      0.03507      4.00866         0.626177     -0.079913     -0.111550
Pb       3.76470     15.57364     16.61641        -0.028619     -0.007838     -0.087751
Pb       0.10031      3.83384      4.18222        -0.103469      0.069663     -0.350064
Pb      15.46787      3.80418     16.61236         0.149620      0.706942      0.338810
Pb      15.54953     15.55198      4.00614         0.073170      0.125910      0.009643
Pb      15.47280     15.56136     16.56021         0.838375     -0.190497      0.670038
Pb       3.63513      3.76788      8.35350         0.650699     -0.055212     -0.235979
Pb       3.89332      0.08516      8.29575        -0.446455     -0.508139      0.269797
Pb      15.54454      3.77962      8.28830         0.120391     -0.000811     -0.434634
Pb       0.15178     15.58296      8.20615        -0.406489     -0.240759      0.009931
Pb       3.91270      3.94218     12.38303        -0.030229      0.143254     -0.074187
Pb       3.83645     15.39561     12.28216         0.088955      0.278525      0.375823
Pb      15.58874      3.76985     12.43339         0.239252      0.334561      0.180512
Pb      15.55807      0.32357     12.61785         0.125961     -0.532388     -0.531541
Pb       3.79908      7.86471      4.33837        -0.235556     -0.118147     -1.024160
Pb       3.80966      7.74212      0.00452         0.117075     -0.258260     -0.207079
Pb       0.25806      7.91446      4.26240        -0.554163     -0.411554     -0.580890
Pb       0.03935      7.73134      0.01617        -0.250246      0.065887     -0.151103
Pb       4.08264      7.67017      8.10137        -1.246721     -0.010784      0.786732
Pb      15.38650      7.74501      8.59928         0.099987      0.190824     -0.826804
Pb       3.92486      7.90274     12.43343        -0.040370     -0.806522     -0.022498
Pb      15.59208      7.99337     12.61340        -0.053668     -0.569164      0.255778
Pb       3.82056     11.66959      4.07661         0.726669     -0.025054      0.208053
Pb       3.92933     11.60907     16.44664        -0.628179      0.230728     -0.061841
Pb      15.59088     11.66652      4.05638        -0.495876     -0.183941      0.315616
Pb      15.53349     11.85035     16.56033         0.177302     -0.746096     -0.058675
Pb       3.83445     11.62261      8.03829         0.162595      0.935916      0.805758
Pb      15.57388     11.60603      8.33815        -0.108247      0.420962     -0.546290
Pb       4.06504     11.68512     12.27739        -0.468333     -0.060137      0.668936
Pb       0.23000     11.51470     12.28939        -0.780081      0.742821      0.805429
Pb       7.86296      3.71978      4.20381         0.117112     -0.119695     -0.139774
Pb       7.84847      4.01070      0.13136         0.299500     -0.378327     -1.086081
Pb       7.77387     15.41295      3.98652         0.021573      0.442570     -0.313502
Pb       7.91494      0.18812      0.12949         0.172928     -0.283092     -0.501831
Pb       7.55501      3.98450      8.35875         0.344216     -0.130701     -0.388302
Pb       7.88426     15.50540      8.34675        -0.437486      0.210705      0.004749
Pb       7.63549      3.76865     12.40732         0.709621      0.159225      0.264126
Pb       7.63670     15.56493     12.57315         0.533141     -0.107263     -0.256186
Pb       7.68444      7.86540      4.15712         0.501096      0.012929      0.354999
Pb       7.83787      8.04445     16.58875        -0.381483     -1.014311     -0.312874
Pb       7.81922      7.76152      8.26204        -0.065410     -0.192372     -0.296287
Pb       7.83706      7.54523     12.34238         0.241317      0.432221     -0.002325
Pb       8.02053     11.68805      4.35058        -0.826870      0.219660     -0.994400
Pb       7.63143     11.68262      0.02272         0.547950      0.191764     -0.048853
Pb       7.59770     11.74288      8.07545        -0.120201      0.129931      0.517299
Pb       7.66274     11.45455     12.40031         0.490626      0.674295     -0.018784
Pb      11.79659      3.92865      4.39882         0.072140     -0.110155     -0.874519
Pb      11.84267      4.09834      0.14185        -0.644822     -0.258143     -0.190585
Pb      11.50249     15.46344      4.18420        -0.190934      0.542966     -0.680266
Pb      11.55290     15.50700      0.11136        -0.201590      0.216780     -0.876699
Pb      11.77435      4.12420      8.42129        -0.096904     -0.186839     -0.681786
Pb      11.61929      0.13728      8.24863         0.544775     -0.121749      0.323422
Pb      11.86277      3.81519     12.64543        -0.544431     -0.186794     -0.025641
Pb      11.90010     15.52594     12.41779        -1.047932      0.388937      0.305166
Pb      11.73006      7.42425      4.01283         0.315841      1.561951      0.854139
Pb      11.36178      7.77602      0.03160         0.992068      0.147903     -0.329744
Pb      11.51281      7.97340      8.23119         0.781025     -0.728115     -0.104120
Pb      11.49512      7.89649     12.69919         0.052821      0.204744     -0.476056
Pb      11.61103     11.25296      4.29424         0.590598      0.872185     -0.717759
Pb      11.82073     11.80918     16.50165        -0.551440     -0.691578      0.411397
Pb      12.07677     11.99225      8.44368        -0.491815     -0.936797     -0.176916
Pb      11.61296     11.90433     12.40633         0.113322     -0.411255     -0.011196
Ti       1.85392      1.82021      2.14519         0.541451      0.808401      1.386018
Ti       1.99188      1.99646     14.72584         0.427419     -0.805495     -0.636142
Ti       1.91243     13.51735      2.18270         0.130915      0.935709     -0.652968
Ti       1.92874     13.68816     14.44304         0.602520     -0.813357      1.115590
Ti      13.55689      1.91569      2.21098        -0.748967      0.589308      0.191847
Ti      13.62140      1.94295     14.86424        -2.178839      0.112179     -0.463404
Ti      13.54340     13.61196      2.30574        -0.190270     -0.745726     -0.392667
Ti      13.69648     13.64909     14.61837        -0.713354     -0.501819      0.199584
Ti       1.91001      1.92325      6.34670         0.635328      0.279168     -0.082980
Ti       1.93435     13.66531      6.11885        -0.060040     -0.032416      1.780146
Ti      13.63587      1.87970      6.28183         0.547921      0.094134     -0.367879
Ti      13.72387     13.64333      6.17505         0.205006      0.209190      0.990768
Ti       1.94462      1.91724     10.58182        -0.216598     -0.226290     -1.236778
Ti       1.92941     13.54964     10.39996         0.733585      1.008264     -0.201069
Ti      13.58568      1.95925     10.47193         0.143842     -0.630952     -0.267009
Ti      13.78099     13.72005     10.48962        -0.094598     -0.730714      0.295088
Ti       2.03299      5.72371      2.25436        -0.220709      1.089154     -0.298900
Ti       1.86186      5.72284     14.69968         0.320159      1.212965      1.248153
Ti      13.83982      5.84779      2.15485        -1.114633      0.057549     -0.093345
Ti      13.54801      5.94179     14.66929         0.376776      0.127335      0.667593
Ti       1.83778      5.86454      6.35554        -0.074345     -0.168916     -0.426660
Ti      13.65038      5.91236      6.29856        -0.103771     -0.993754      0.726958
Ti       1.91938      5.85260     10.47919         2.072056     -0.646388     -0.288649
Ti      13.78472      5.82406     10.58555        -1.481390      0.214151     -0.019330
Ti       1.92224      9.76648      2.17199         0.057651     -1.888996      0.533821
Ti       1.97452      9.67349     14.62211        -0.702316      0.499810     -0.179730
Ti      13.66959      9.70335      2.25449        -0.373085     -0.356668     -0.991878
Ti      13.63780      9.73133     14.63409        -0.074016      0.016146      1.145460
Ti       1.78643      9.73654      6.46447         0.919224     -0.404674     -0.454056
Ti      13.64329      9.65845      6.24326        -0.595388      0.434717     -0.217435
Ti       2.00049      9.67132     10.39985         0.453040     -0.113745     -0.440549
Ti      13.49171      9.66837     10.69896        -0.089017      0.855196     -0.935655
Ti       5.82331      2.01555      2.12802         0.069030     -1.623003      0.163592
Ti       5.84152      1.99125     14.65572         1.087360      0.190154     -0.245436
Ti       5.83320     13.51195      2.14878         0.666413      1.097728      1.952232
Ti       5.91158     13.75246     14.85301         0.229945     -0.334117     -2.047024
Ti       5.88872      1.85010      6.36951        -1.545517      0.757338     -0.322154
Ti       5.70133     13.73120      6.29859         0.237365     -0.794811     -0.151719
Ti       5.82095      1.88950     10.51413         0.132352     -0.198698      1.203269
Ti       5.89195     13.57636     10.53403        -1.020455      0.382792     -2.017260
Ti       6.00389      5.86111      2.26785        -1.547227      0.770962      0.457936
Ti       5.84582      5.77015     14.64790         0.382246      0.994598     -0.259500
Ti       5.75665      5.78033      6.20903         0.124022     -0.693885      1.339439
Ti       5.90131      5.86026     10.51792        -1.317019     -0.616092     -0.079029
Ti       5.80264      9.72938      2.28574        -0.406287      0.274561      0.155300
Ti       5.85959      9.63147     14.63172        -0.589968      0.051408      0.228897
Ti       5.77521      9.65906      6.26295         0.588867      1.647668     -0.906844
Ti       5.89349      9.61452     10.35123        -0.380149      0.506609      1.461303
Ti       9.75855      2.05289      2.16552        -0.033340     -1.609811      0.431639
Ti       9.72690      2.02601     14.63883         0.053153     -0.638297      0.285436
Ti       9.81847     13.52113      2.17839        -2.003186      0.353782     -0.342039
Ti       9.67739     13.62169     14.64257        -0.006672      1.448420      0.123799
Ti       9.76633      1.92960      6.31873        -0.424201      0.133597     -0.447544
Ti       9.83192     13.60073      6.44028         0.035306      0.180106     -0.594289
Ti       9.69310      1.93161     10.54886         0.216317     -0.345101      1.135881
Ti       9.71626     13.65638     10.38669        -0.295291      0.417158      2.058133
Ti       9.74578      5.82591      2.30051         0.513926     -0.542519     -0.387541
Ti       9.64606      5.83189     14.55296        -0.079794     -0.735646      0.368867
Ti       9.65620      5.79108      6.36700         1.111889     -0.137853     -0.467735
Ti       9.93443      5.67336     10.46959        -1.683055      0.794534      0.952503
Ti       9.65996      9.64230      2.23123         1.069950      1.172301     -0.461241
Ti       9.74454      9.90190     14.64180         0.407589     -1.056890     -0.777693
Ti       9.74624      9.78314      6.33841        -0.249297     -0.876415      0.926745
Ti       9.74312      9.74961     10.29440        -0.032559     -0.074823      1.930368
O       1.85888      1.66580      0.43264         0.289484      0.509254     -1.718036
O       1.78764      1.94788     12.85290         0.178249      0.061412      1.130551
O       1.82485     13.58083      0.38216         0.332247      0.005326      0.812412
O       2.02929     13.55302     12.68367        -0.411804      0.552053      0.475254
O      13.51134      2.03541      0.41309         0.258261     -0.363197     -0.640426
O      13.61785      1.94460     13.02271         0.666795     -0.397773     -0.305961
O      13.41118     13.43944      0.51469         0.666087      0.361534     -1.000498
O      13.62351     13.72163     12.87821         0.303150      0.282882     -0.372297
O       1.84721      2.05771      4.57809        -0.010009     -0.331625     -0.728226
O       1.99255     13.68071      4.35987        -0.204867     -0.246546     -0.073100
O      13.63759      1.83795      4.46396         0.141128      0.231948      0.623230
O      13.60558     13.62276      4.40569         0.092805      0.202818      0.618350
O       1.87545      2.07785      8.65224        -0.030955     -0.360197      1.357349
O       1.93746     13.74226      8.62263        -0.247076     -0.769342      0.486250
O      13.60255      1.92260      8.69268        -0.139634      0.266567     -0.161528
O      13.76740     13.63512      8.67031        -0.106938     -0.263902      0.347074
O       2.04046      5.98704      0.46948        -0.263461     -0.341637     -0.500201
O       2.00257      5.77849     12.98795        -0.235055     -0.193685     -1.278779
O      13.63930      5.95510      0.32258        -0.208441     -0.519372      0.361091
O      13.57412      5.68356     12.91905         0.095195      0.159492     -1.316456
O       1.75140      5.83128      4.49696         0.158257     -0.433278      0.265566
O      13.56781      5.75105      4.54355         0.206767     -0.033027     -1.116969
O       2.11758      5.61688      8.70089        -0.950292      0.830625      0.323822
O      13.69228      5.91272      8.76292        -0.131365     -0.346123      0.506338
O       1.86442      9.68951      0.42564         0.103269      0.043991     -1.316679
O       1.87401      9.49435     12.79801         0.224738      0.340244      0.066573
O      13.64850      9.63128      0.41866         0.042261      0.325234      0.656180
O      13.53441      9.71615     12.86831         0.312079     -0.072995     -1.490583
O       1.82175      9.72996      4.64870         0.211216     -0.051323     -0.026520
O      13.73029      9.85863      4.45721        -0.169993     -0.562732      1.525849
O       1.97072      9.82820      8.56290        -0.389852     -0.276249      1.333803
O      13.56630      9.72663      8.83058        -0.012576     -0.186781      0.554029
O       5.85238      2.09140      0.33999         0.016944     -0.203528      0.449302
O       5.89434      1.98668     12.81545        -0.399669     -0.223033      0.936531
O       5.97648     13.60095      0.39888        -0.570062     -0.373834     -1.760521
O       5.90680     13.59251     12.93470        -0.322249     -0.067851      0.867593
O       5.73759      1.88368      4.60100         0.127493      0.229170     -0.420394
O       5.72042     13.67744      4.49801         0.239081      0.151009      0.737480
O       5.70118      1.89601      8.78501         0.535775     -0.083646     -1.558084
O       5.75675     13.55985      8.70890         0.119280      0.215147      0.723897
O       5.98297      5.73503      0.47830        -0.319594      0.403516      0.178601
O       5.92871      5.79098     12.84916        -0.332001      0.137733     -0.150975
O       5.72353      5.78996      4.46686         0.302723     -0.371220     -0.080821
O       5.87935      6.03201      8.70939         0.068247     -0.612970     -0.324306
O       5.89580      9.65939      0.49108        -0.397520      0.073495     -0.345713
O       5.96174      9.73762     12.84481        -0.361467     -0.416467     -0.035176
O       5.70798      9.86760      4.43511         0.356528     -0.798346      1.765268
O       5.86482      9.59656      8.61845        -0.311425     -0.104485     -1.035981
O       9.55685      2.07679      0.38307         0.627333     -0.299146     -0.309640
O       9.68061      1.99467     12.86504         0.081905     -0.276343     -0.154789
O       9.67262     13.65999      0.40786         0.497152     -0.282947     -0.261118
O       9.62208     13.65830     12.86572         0.183699     -0.317156     -0.462448
O       9.72973      1.75782      4.51410        -0.014127      0.590221      1.316980
O       9.70354     13.67521      4.61796        -0.064281      0.067507      0.860960
O       9.91236      1.89503      8.80710        -0.208553      0.171502     -1.329099
O       9.78882     13.70757      8.64345        -0.145312     -0.267858     -1.246990
O       9.75247      5.83757      0.50144        -0.563373     -0.071155      0.040277
O       9.66544      5.70236     12.75835         0.223940      0.773138     -0.033099
O       9.83077      5.71863      4.56421        -0.110431      0.222279      0.137316
O       9.79213      5.66722      8.66882        -0.175416      0.086547     -0.334788
O       9.72476      9.60227      0.38711        -0.299337      0.043488      0.436357
O       9.75270      9.88487     12.78406        -0.410345     -0.432701      1.403446
O       9.62335      9.73208      4.59079         0.054373      0.247763     -1.687639
O       9.89315      9.74863      8.54387        -0.289452     -0.003630     -0.082916
O       3.88889      1.85430      2.45751         0.046280      0.470263     -0.217712
O       3.93705      2.01169     14.93518        -1.284758     -0.529018      0.150714
O       3.92221     13.53267      2.40086        -1.254615      0.183801     -0.279546
O       3.78458     13.81015     14.99826         0.771890     -0.352037      0.012792
O      15.51620      1.80281      2.41291         0.254290      0.183467      0.150531
O      15.49491      1.90920     15.11803         1.014750      0.104752     -0.346879
O      15.51900     13.62218      2.45151         0.424803      0.071125      0.031283
O       0.04180     13.56529     14.95385        -0.856781      0.317471     -0.276302
O       3.80284      1.94967      6.72503        -0.144938      0.026910     -0.161255
O       3.81268     13.61978      6.62189        -0.297910     -0.120355     -0.334890
O       0.00506      1.84970      6.72511        -0.957073      0.607172     -0.330840
O       0.01104     13.63026      6.49142        -0.567517      0.084139     -0.127671
O       3.83774      1.90387     10.74348        -0.176235      0.186542      0.482125
O       3.91645     13.50196     10.76304        -0.501624      0.277215      0.354621
O      15.54998      1.90041     10.82544         0.697196     -0.307248      0.387984
O       0.07295     13.41906     10.69683        -0.742805      0.192514      0.137267
O       3.89115      5.84960      2.44014         0.865753     -0.759332      0.402363
O       3.94025      5.73036     15.03532        -1.043670      0.162066      0.206822
O       0.02316      5.65972      2.27057         0.066930      0.454255      0.523674
O      15.50506      5.92938     14.96556         0.400246     -0.944800      0.107793
O       3.79749      5.95245      6.38451         1.211979     -0.469874      0.471089
O      15.52951      6.03509      6.68782         0.260057     -0.198222      0.232202
O       3.89710      5.77263     10.84769        -0.401765     -0.115067      0.212898
O       0.04983      5.82298     10.70851        -0.514099      0.144459      0.406148
O       3.83643      9.82077      2.52656        -0.067271     -0.218409     -0.199119
O       3.85772      9.64906     14.90680        -0.337171     -0.289122      0.241213
O      15.59806      9.74867      2.64596         0.260824     -0.445530     -0.675943
O      15.54410      9.73634     14.80071         0.528581     -0.119443      0.273453
O       3.88011      9.75248      6.62323         0.158163     -0.611194     -0.372769
O      15.55118      9.54513      6.76532        -0.663502      0.259628     -0.115205
O       3.88632      9.64542     10.80115         0.016276      0.065606     -0.286901
O      15.55356      9.66200     10.83990         0.508080      0.058949     -0.348168
O       7.84550      1.98625      2.52174        -1.708513     -0.268959      0.107646
O       7.78636      1.99627     14.95300        -0.237283      0.275192      0.060669
O       7.81785     13.54736      2.58186        -0.430543     -0.112051     -0.024629
O       7.77447     13.55446     14.98721        -0.941585     -0.418645      0.216804
O       7.70975      1.91650      6.56603         0.806793     -0.155063      0.601251
O       7.59028     13.76083      6.77810         1.462502     -0.399195     -0.636137
O       7.72075      1.77867     10.82208         0.113195      0.276107     -0.360100
O       7.70925     13.59447     10.68774         1.705361     -0.067639      0.008402
O       7.77502      5.89072      2.79353         0.519861     -0.358816     -0.831111
O       7.77020      5.83238     14.96790         0.394717     -0.016184      0.073740
O       7.77836      5.84568      6.61200        -0.639979     -0.249414      0.086472
O       7.72366      5.81308     10.78627         0.720400      0.079326     -0.384888
O       7.76985      9.69588      2.50385        -0.051671     -0.358279      0.258001
O       7.69258      9.80234     14.94745         0.979798     -0.170166      0.223948
O       7.74651      9.84466      6.48189        -0.555350     -0.598346      0.592924
O       7.78538      9.54952     10.50207         0.656022      0.499203      0.566687
O      11.57529      2.02692      2.47859         1.594699     -0.511396      0.092851
O      11.67842      1.75669     14.93483        -0.106649      0.333212      0.298382
O      11.57789     13.46262      2.59601         1.670928      0.479351      0.066330
O      11.57598     13.57963     14.84569         1.273116      0.161290      0.436023
O      11.73759      1.78036      6.49934        -0.488574      0.835061      0.220329
O      11.73468     13.67668      6.61721        -0.389307     -0.321248     -0.017627
O      11.70060      2.07615     10.94596         0.271337     -0.713274     -0.404443
O      11.82084     13.68787     10.80434        -1.409353      0.299601     -0.370187
O      11.70332      5.85353      2.38849        -0.399748     -0.513893      0.176096
O      11.54750      6.00627     14.92692         0.783624     -0.378042      0.090452
O      11.66983      5.76225      6.64392        -0.199000     -0.248308      0.321673
O      11.73094      5.55341     10.69371         0.626476     -0.178651      0.131950
O      11.63875      9.57587      2.71516         0.172455      0.218318     -0.757441
O      11.68367      9.69710     14.90914        -1.284203      0.161474     -0.019225
O      11.65171      9.85591      6.42970         0.697371     -0.471019      0.370917
O      11.61802      9.56521     10.92153        -0.024627      0.538777     -0.680340
O       1.88894      3.83484      2.41907         0.274297     -0.582763      0.073146
O       1.87363      3.82879     15.19789        -0.228980      0.042577     -0.441442
O       1.91000     15.55167      2.51802         0.142940     -0.390990     -0.019597
O       1.80072      0.04660     14.87920         0.232450     -0.328156     -0.030264
O      13.56665      3.83911      2.41665         0.244400      0.461774      0.274057
O      13.50940      3.89405     15.01286         0.145750     -0.023028      0.225968
O      13.45023     15.53951      2.29909         0.133039     -0.010620      0.615652
O      13.64605     15.48703     15.13968        -0.117949      0.251767     -0.463768
O       1.84919      3.95115      6.63901        -0.194702     -0.400756     -0.107356
O       1.88058     15.58071      6.51906         0.205186     -0.043899      0.014954
O      13.74638      3.95378      6.50006        -0.280754     -1.531696      0.571888
O      13.67347     15.55724      6.60775         0.188387     -0.218238     -0.379742
O       1.90018      3.81885     10.92696         0.041612      0.637907     -0.290108
O       1.94229     15.55970     10.68374        -0.060340     -0.026367      0.470439
O      13.87226      3.76038     10.83888        -0.779787      1.917960     -0.160576
O      13.71831     15.60538     10.80403        -0.044155     -0.005089      0.308939
O       2.03663      7.78925      2.61262        -0.727670      0.307983      0.082132
O       1.76273      7.70555     14.92944         0.998133      0.692991      0.322748
O      13.72977      7.72385      2.58612         0.093499     -0.211537     -0.142922
O      13.54206      7.82317     14.76024         0.384474     -0.434964      0.200784
O       1.97033      7.73629      6.56274        -0.115159      1.132667      0.358562
O      13.40435      7.75755      6.45796         0.366968      1.545683      0.613006
O       1.98864      7.75179     10.58554        -0.370416      0.066474      0.282684
O      13.57472      7.71515     10.86507         0.423877     -0.250180      0.136196
O       1.82451     11.60623      2.52369         0.330429      1.522549     -0.204160
O       1.99203     11.64475     14.68174        -0.045858     -0.026610      0.686553
O      13.67609     11.60370      2.52256        -0.292829      0.268953     -0.146654
O      13.59021     11.70798     14.91696         0.247529      0.213935      0.279308
O       1.85621     11.72886      6.52148        -0.021040     -0.566192      0.347715
O      13.70254     11.59128      6.66423         0.099454      0.994374      0.077614
O       2.04671     11.59347     10.80469        -0.434327     -0.506267     -0.452123
O      13.48581     11.76097     10.90125         0.603280     -1.021338     -0.636188
O       5.89824      3.90026      2.45755        -0.324463     -0.007143      0.492496
O       5.90843      3.94381     14.92456        -0.282077     -1.359850      0.396496
O       5.86066     15.53390      2.35148        -0.040999      0.638218      0.379950
O       6.07600      0.03494     14.96100        -1.115814     -0.550152      0.104522
O       5.67777      3.90626      6.63970         0.689577      0.169594      0.030691
O       5.58350     15.60053      6.73346         0.872604      0.068498     -0.498577
O       5.87650      3.84513     10.75946        -0.251284      0.129577     -0.222279
O       5.71085     15.50289     10.93526         0.457116      0.320734     -0.585145
O       5.74799      7.78425      2.80394         0.332830     -0.020022     -1.179647
O       5.71834      7.69820     15.03631         0.585106      1.174449     -0.289742
O       5.86576      7.71196      6.56430         0.036606      0.995871     -0.426362
O       5.74309      7.72660     10.91110         0.497657      0.803302     -0.408641
O       5.79094     11.64738      2.54848         0.313573      0.047391     -0.545930
O       5.68692     11.58402     14.99025         0.417714      0.668238      0.199616
O       5.76848     11.66651      6.61274         0.048268      0.034992     -0.067300
O       5.84944     11.55782     10.75402         0.287819     -0.196077     -0.028771
O       9.71566      3.85726      2.56861        -0.448684      1.677486      0.215618
O       9.81578      3.92160     14.89859        -0.054521      0.250993      0.316989
O       9.76281     15.57123      2.38574         0.039396     -0.269540      0.384744
O       9.60800     15.57383     15.02596         0.132579     -0.027239      0.139955
O       9.61623      3.84397      6.56641         0.427304     -0.621233      0.127168
O       9.75391      0.03399      6.78019        -0.328482     -0.696036     -0.281964
O       9.51954      3.78699     10.76250         0.287743      0.991113     -0.255227
O       9.61322     15.53964     10.69555         0.664301     -0.343660      0.211703
O       9.70557      7.73428      2.53620        -0.329593      0.023936      0.111009
O       9.56097      7.80958     14.89389         0.487081      0.423067     -0.120154
O       9.69244      7.80443      6.64590         0.103668     -0.271568      0.221606
O       9.75253      7.68458     10.64789         0.146275      0.041949      0.147192
O       9.70017     11.60112      2.39811        -0.112293     -0.707078      0.698358
O       9.67898     11.68192     15.05217        -0.135407     -0.194422     -0.225149
O       9.65696     11.68856      6.54464        -0.178489      1.473954      0.179092
O       9.82018     11.69701     10.65801        -0.206325     -0.504580     -0.128782
