  # total energy = -7883.50675964 
CRSYTAL
PRIMVEC
    15.6080000000000005    0.0000000000000000    0.0000000000000000
     0.0000000000000000   15.6080000000000005    0.0000000000000000
     0.0000000000000000    0.0000000000000000   16.6239999999999988
PRESSURE
-0.184894 -0.325523 0.260524 0.181236 -0.096525 -0.047614
PRIMCOORD
320 1
Pb       3.82130      3.81193      4.10960         0.297017      0.251077      0.366369
Pb       3.84991      3.84167     16.52265         0.293582     -0.253575      0.869687
Pb       3.91214     15.50102      4.10763        -0.224035     -0.002599      0.579051
Pb       3.97944     15.58601     16.53721        -0.483002      0.370009      0.667667
Pb       0.02658      3.93819      4.10896         0.077175     -0.057482      0.132921
Pb       0.03585      3.86961     16.61266        -0.310002     -0.038606      0.300516
Pb       0.02031     15.51777      4.17505         0.125033     -0.123842     -0.116587
Pb      15.60592      0.00393     16.55078        -0.258662     -0.496328      0.577982
Pb       4.00098      3.89059      8.18636        -0.675076      0.031450      0.947585
Pb       3.87313     15.41788      8.17927         0.094282      1.081636      0.806817
Pb      15.58495      3.91334      8.27794        -0.314423     -0.115613      0.030190
Pb      15.50690     15.51640      8.31802         0.049078      0.642668     -0.060442
Pb       3.86348      3.79180     12.43711        -0.177933      0.214765     -0.604372
Pb       3.95220      0.08421     12.52697        -0.125610     -0.167737     -0.534092
Pb       0.00284      4.04075     12.54674         0.068690     -0.508332     -0.757664
Pb       0.05644     15.52516     12.43750        -0.119556      0.496427      0.119179
Pb       3.95199      7.77027      3.97928        -0.251450     -0.449272      0.890108
Pb       3.90904      7.82110     16.58706        -0.229466     -0.076195      0.026162
Pb      15.44182      7.75896      4.10243         0.301598      0.010588      0.050894
Pb      15.59498      7.71983     16.57124         0.025791      0.711037      0.407271
Pb       3.75810      7.77583      8.30120         0.516084      0.195211      0.320115
Pb      15.53767      7.71256      8.31918         0.038049      0.108225     -0.006908
Pb       3.88553      7.73732     12.35753        -0.166908      0.207547     -0.064893
Pb      15.56277      7.76022     12.38490         0.270787     -0.204286      0.216906
Pb       3.89066     11.66707      4.11696         0.217969      0.171761      0.876215
Pb       3.83657     11.74068      0.05738         0.259052     -0.286186     -0.836036
Pb      15.58267     11.61859      4.09958         0.117093     -0.102341      0.111132
Pb      15.58494     11.59669     16.54007         0.113832      0.248451     -0.334232
Pb       3.90462     11.72995      8.41701         0.138806     -0.619580     -0.641198
Pb       0.07561     11.73882      8.27095        -0.353294     -0.190340      0.260160
Pb       3.79931     11.64887     12.44243         0.166270     -0.111084      0.302576
Pb      15.51639     11.81533     12.51566         0.442619      0.140637     -0.145096
Pb       7.82016      3.90927      4.08105         0.016950     -0.171713      0.886317
Pb       7.82738      3.85327     16.59651        -0.160743      0.055271      0.368461
Pb       7.84757      0.01684      4.19804        -0.041108      0.011585     -0.123339
Pb       7.77358     15.58194     16.52388         0.620320      0.338030      0.317027
Pb       7.88865      3.79846      8.23823        -0.327452      0.279235      0.294898
Pb       7.72883      0.02203      8.13956         0.450517      0.290714      1.126728
Pb       7.86781      3.85622     12.51337        -0.516152     -0.229337     -0.652987
Pb       7.76158     15.57794     12.32457        -0.571337      0.068479      0.275920
Pb       7.93004      7.77721      4.15114        -0.810181      0.147162      0.727495
Pb       7.65042      7.60416      0.03535         0.300792      0.317984     -0.142041
Pb       7.75068      7.72614      8.22347         0.126431      0.127880      0.288406
Pb       7.64258      7.91239     12.45769         0.059816     -0.072577      0.186837
Pb       7.81129     11.64991      4.10234        -0.425921      0.371048      0.979288
Pb       7.79667     11.76085     16.58821        -0.332567     -0.184183      0.207550
Pb       7.95204     11.66743      8.38537        -0.866062     -0.001738     -0.012564
Pb       7.78502     11.81886     12.43676        -0.108142     -0.434855      0.106003
Pb      11.67501      3.80656      4.04836         0.313014      0.407860      0.426343
Pb      11.64663      3.83004      0.07892        -0.154267      0.089044     -0.412698
Pb      11.74511     15.53781      4.11461        -0.062517     -0.092808     -0.210470
Pb      11.73706     15.59470     16.51773        -0.380006      0.205305      0.307591
Pb      11.67956      3.87983      8.29860         0.232326     -0.258473     -0.154748
Pb      11.81451      0.00492      8.37014        -0.279107      0.282205     -0.171047
Pb      11.63711      3.91868     12.32735         0.127624     -0.142488      0.522099
Pb      11.49591      0.09196     12.44584         0.838124     -0.044855      0.739734
Pb      11.68838      8.02672      4.25307         0.310122      0.080673     -0.449114
Pb      11.78977      7.76407     16.59012        -0.826082      0.128264      0.187111
Pb      11.71123      7.66302      8.38617        -0.115413      0.409485     -0.035957
Pb      11.72829      7.86696     12.44377        -0.263980     -0.322517      0.215439
Pb      11.81811     11.77992      4.08486        -0.409166     -0.452503      0.562415
Pb      11.51832     11.61890     16.60922         0.205346      0.299220      0.291839
Pb      11.60694     11.72387      8.38723         0.122973     -0.036318     -0.101984
Pb      11.67762     11.60272     12.50679        -0.643179      0.449496     -0.335237
Ti       1.90921      1.77157      2.21284         0.247839      1.341865     -0.760500
Ti       1.84576      1.90937     14.71737         1.457972     -0.677483      0.394443
Ti       1.96660     13.53442      2.17567        -0.274565      0.602288      1.188717
Ti       1.93037     13.65219     14.81267         0.048483     -0.386036     -1.669453
Ti      13.69693      1.95188      2.15779        -0.029774     -0.537162     -0.149745
Ti      13.65358      1.98768     14.73690        -0.920075     -0.126721     -1.108966
Ti      13.66652     13.65833      2.14910         0.044965     -0.085586     -0.705872
Ti      13.61243     13.67246     14.65750         0.217904      0.563061      0.130509
Ti       1.91872      2.02267      6.36462         0.184487     -0.435289      0.485570
Ti       1.93667     13.67610      6.44285         0.133669     -0.348379     -1.503801
Ti      13.64739      1.95568      6.31593         0.067300      0.472428      0.860489
Ti      13.59276     13.63539      6.41740        -0.101037     -0.078649      0.297273
Ti       1.83174      1.98829     10.35758         0.136650      0.025634      3.006244
Ti       1.95016     13.68360     10.56952        -0.582744      0.300682      0.126036
Ti      13.65790      1.90785     10.63436         0.603936      0.463414     -0.913225
Ti      13.57492     13.69865     10.57168         0.301007     -0.021798      0.112535
Ti       1.95312      5.77766      2.17767         0.210883     -0.049647      0.527358
Ti       1.83413      5.82733     14.83570         1.721495      0.232722     -0.976068
Ti      13.63790      5.79757      2.14224         0.687309      0.535418      1.627958
Ti      13.55346      5.89782     14.74565        -0.018162     -0.853924     -1.115931
Ti       1.90008      5.90263      6.39412        -0.004258     -0.260616      0.001295
Ti      13.56553      5.90110      6.39369         0.567033     -1.110363     -0.675431
Ti       1.95215      5.86953     10.46349         0.259837     -0.715784      0.261293
Ti      13.59885      5.78480     10.60183         0.437597      0.066778     -0.474966
Ti       1.99485      9.68330      2.14630        -1.338445     -0.323348     -0.317899
Ti       1.93739      9.70630     14.64371         0.027467      0.432034      0.013558
Ti      13.67087      9.77893      2.08237        -0.408660     -0.472907      1.571379
Ti      13.57776      9.86299     14.59958         0.654332     -0.507300     -0.118495
Ti       1.87814      9.75869      6.40282         0.831281     -0.169637     -0.325187
Ti      13.57666      9.78132      6.45417         0.685311      0.376434     -0.062139
Ti       1.82048      9.78317     10.58773         0.984037     -0.290608      0.652482
Ti      13.60891      9.77417     10.54475        -0.358799      0.190019     -0.592915
Ti       5.78654      1.87371      2.28582         0.764688      0.697138     -0.669980
Ti       5.80439      1.98212     14.73973         0.419462      0.005944     -0.221730
Ti       5.86455     13.66748      2.18632         0.410897     -0.562164      0.042237
Ti       5.85286     13.71746     14.73944        -0.091386     -1.559670     -0.708338
Ti       5.84973      1.98847      6.39208        -0.378963      0.234994      0.918603
Ti       5.86815     13.65990      6.40898         0.169035     -1.382934      0.011125
Ti       5.78315      1.88401     10.47786         0.406045     -0.149619     -0.065032
Ti       5.73615     13.55223     10.50936         0.636369      1.351261     -0.614620
Ti       5.88425      5.72931      2.34340        -0.413933      0.416169      1.862314
Ti       5.70871      5.84192     14.60166         0.700324     -0.651621     -0.858595
Ti       5.78181      5.85559      6.42561         0.698318     -0.819990     -1.510438
Ti       5.93055      5.74293     10.54443        -1.193318      0.047693      0.521376
Ti       5.80039      9.73423      2.23223         0.851519     -0.099206     -0.894684
Ti       5.83404      9.76406     14.77950        -0.012838      0.718702     -1.440011
Ti       5.81469      9.72730      6.52313        -0.105886      0.905698     -0.045556
Ti       5.80987      9.72545     10.53347        -0.205401     -0.267626     -0.674256
Ti       9.77298      1.93900      2.21314        -0.931745     -0.250951     -0.416285
Ti       9.72315      2.04627     14.67066         0.207862     -1.142146     -0.044566
Ti       9.73270     13.63838      2.22624         0.041990      0.261056     -0.508619
Ti       9.73993     13.61469     14.66893        -0.573027      0.855667     -0.597758
Ti       9.79159      1.99187      6.29791        -0.795822     -0.607300      1.452782
Ti       9.77746     13.71233      6.43655        -0.646456     -0.233333     -0.508090
Ti       9.69218      1.90913     10.50524        -0.650419      0.725404     -0.888852
Ti       9.71659     13.69183     10.57975        -0.160975     -1.068953     -0.577959
Ti       9.83208      5.88463      2.29092        -0.680703     -0.110787     -0.277946
Ti       9.65852      5.87606     14.59975         0.591983      0.010550      0.353766
Ti       9.72300      5.83909      6.34356        -0.688161     -0.306303      0.310722
Ti       9.67588      5.86165     10.51749         0.006154     -0.489783     -0.195910
Ti       9.66114      9.80706      2.30791         1.062644     -0.695625     -1.624966
Ti       9.68657      9.69330     14.74817        -0.626829     -0.178457     -1.172436
Ti       9.73247      9.76779      6.46200        -0.710030     -0.019989     -0.444116
Ti       9.69550      9.69039     10.57485        -0.487192      0.537875     -0.231644
O       2.00259      1.81467      0.40701        -0.546355      0.479935      0.852459
O       1.93193      1.81071     12.97038         0.128566      0.220565      0.063882
O       2.02784     13.48288      0.41795        -0.145965      0.040308      0.007033
O       1.91048     13.67459     12.97547         0.024341      0.106732      0.371136
O      13.57234      1.85412      0.36096         0.661801      0.561925      0.684391
O      13.62318      1.88234     12.94824        -0.082378      0.230729      0.620925
O      13.55071     13.65053      0.36215         0.232862     -0.318620      1.038035
O      13.76190     13.70321     12.88172        -0.154055     -0.163135      0.179387
O       1.96286      1.99764      4.60173        -0.312875     -0.554841     -0.345159
O       2.03396     13.75883      4.63296        -0.524952     -0.335822      0.224423
O      13.65127      2.04137      4.54875        -0.336833     -0.470117     -0.267268
O      13.62815     13.66378      4.63250        -0.017427      0.055535     -0.356682
O       1.83111      2.10078      8.66934         0.044558     -0.336322     -1.593376
O       1.90743     13.47355      8.77768         0.093632      0.457301     -0.274847
O      13.66960      1.96907      8.80663        -0.272472     -0.188851      0.291478
O      13.57281     13.78727      8.71000        -0.193478     -0.269309      1.272731
O       1.88435      5.76274      0.39907         0.017959     -0.087334     -0.099437
O       1.82612      5.80661     13.07248         0.174675      0.010950     -0.498090
O      13.78026      5.93962      0.41423        -0.207809     -0.154414     -1.438225
O      13.55812      5.79791     12.93383         0.333382      0.133615      0.213667
O       1.74805      6.00022      4.62394         0.508959     -0.170008      0.068522
O      13.57464      5.77264      4.59426         0.070752      0.369788      0.074623
O       1.92733      5.86808      8.70094        -0.421153      0.054844     -0.447116
O      13.60606      5.87867      8.80589        -0.107029      0.024167     -0.028398
O       1.91551      9.78159      0.33132         0.189388      0.169550      1.033260
O       2.05289      9.65335     12.86238        -0.346452      0.251473      0.207289
O      13.71887      9.75659      0.35372        -0.239535      0.091663     -1.234330
O      13.33863      9.88449     12.79874         0.749895     -0.401468      0.688847
O       1.91391      9.63814      4.61070        -0.091780      0.157014      0.438202
O      13.68665      9.85576      4.64855        -0.159897     -0.444781      0.093632
O       1.95330      9.82193      8.86426        -0.569283     -0.115456     -0.999200
O      13.51445      9.75934      8.74878         0.237727     -0.263221      0.764313
O       5.84940      1.96929      0.47651         0.132637     -0.069195      0.618802
O       5.84509      1.86037     12.99316        -0.280352     -0.268764     -1.018831
O       5.81183     13.74796      0.39751         0.331077     -0.406003      0.450173
O       5.91343     13.66816     12.96145        -0.193346      0.037282     -0.382119
O       5.85274      1.94318      4.66984        -0.263684     -0.402282     -1.572688
O       5.93325     13.64034      4.62443        -0.300460      0.122634      0.172989
O       5.82514      1.93811      8.71667        -0.098392      0.130159      0.181001
O       5.50356     13.54343      8.72784         0.709858      0.440005      0.026896
O       6.02702      5.63921      0.65715        -0.043805      0.341735     -2.721878
O       5.70853      5.87788     12.81069        -0.094010     -0.170580      0.811481
O       5.71982      5.67902      4.63106         0.279621      0.859387      0.110335
O       5.85848      5.74058      8.78892         0.238101      0.298240     -0.094095
O       5.83770      9.65307      0.43246        -0.205286     -0.045320      0.284949
O       5.82204      9.82479     12.96895        -0.120657     -0.394153      0.443611
O       5.88187      9.84268      4.75811        -0.399425     -0.550278     -1.299736
O       5.92173      9.65097      8.74445        -0.304583      0.254194      0.568073
O       9.67946      1.98807      0.44219         0.042660     -0.165749      0.194045
O       9.72179      2.03407     12.85223        -0.016670      0.129929      0.540690
O       9.72728     13.59142      0.39952         0.179115     -0.077912      0.821271
O       9.54817     13.76406     12.85991         0.474730     -0.557563      0.644301
O       9.76894      1.96539      4.55137         0.369722      0.135944     -1.410060
O       9.82561     13.47745      4.67227        -0.276814      0.804004     -0.362028
O       9.50142      1.85137      8.71507         0.988924      0.308203      0.716296
O       9.94932     13.64513      8.80514        -0.381654      0.272760      0.032416
O       9.72722      6.04696      0.54554        -0.213029      0.013224     -0.456430
O       9.83381      5.82428     12.83504        -0.222311     -0.276969      0.476870
O       9.76962      5.59216      4.58324         0.828273      0.857293     -0.516937
O       9.57263      5.82306      8.73392         0.532346      0.141310      0.122829
O       9.79014      9.75258      0.45472        -0.349651      0.075427      0.480106
O       9.79001      9.86848     12.90136        -0.142316     -0.534609      1.137716
O       9.69829      9.75762      4.64732         0.240052      0.127986      0.318073
O       9.64150      9.73445      8.77184         0.380034      0.041958      0.172821
O       3.83258      1.94939      2.52718         0.999433     -0.209913      0.172097
O       3.92320      1.90051     15.05962        -0.413924     -0.286688     -0.260703
O       3.95454     13.64912      2.60949        -0.347070     -0.413985     -0.484559
O       3.87910     13.65494     14.98729         0.786493     -0.345313      0.314561
O      15.59943      1.90224      2.55609         0.016497     -0.430760     -0.257767
O      15.60084      1.77228     15.02692        -0.227116      0.671845     -0.029619
O       0.03376     13.61096      2.60505         0.067848      0.055512     -0.503143
O       0.00692     13.70819     15.09537        -0.381126     -0.293791     -0.175931
O       3.88280      2.00474      6.66399        -0.854730     -0.277442      0.070181
O       3.86755     13.66796      6.66030        -0.176113     -0.042851     -0.055307
O      15.57886      1.87736      6.65890        -0.606036      0.393827     -0.141041
O      15.47430     13.67608      6.73125         0.886658     -0.418312     -0.099307
O       3.88558      1.90603     10.89947        -0.563381      0.031783     -0.211581
O       3.84579     13.66175     10.86522        -0.567591     -0.057216      0.434516
O      15.55247      1.95825     10.91451         0.446321      0.344620     -0.193718
O       0.04832     13.58137     10.96335        -0.868595      0.379787     -0.583013
O       3.86928      5.64235      2.51104         0.279228      0.614611      0.048653
O       3.89898      5.77478     15.14044        -0.366735      0.547351     -0.214999
O       0.06029      5.83495      2.54533        -0.754234      0.633960     -0.171491
O       0.03779      5.90073     15.12890        -1.681318     -0.632717     -0.343011
O       3.84255      5.84205      6.65537        -0.674958      0.206174      0.215920
O      15.48160      5.84619      6.77352         0.402155      0.076279     -0.150481
O       3.79495      5.71368     10.70908         1.231646      0.423233      0.824679
O       0.03755      5.92186     10.77878        -1.492507     -0.280957      0.705304
O       3.85112      9.77906      2.55450         1.314628      0.176516     -0.089702
O       3.88200      9.79745     14.98423         0.148462     -0.361297      0.432067
O       0.03552      9.69950      2.47710        -0.090516      0.012597      0.036848
O      15.54668      9.83801     14.79345        -0.293306     -0.293366      0.342930
O       3.85511      9.70139      6.85440        -0.328811     -0.285575     -0.447774
O      15.55151      9.80660      6.83598         0.134761     -0.123855     -0.381596
O       3.90555      9.67590     10.78733        -0.511216      0.590558      0.389066
O      15.48472      9.67362     10.86910         0.366395      0.171694      0.027009
O       7.77541      1.81691      2.68659         0.334963      0.180718     -0.738030
O       7.77341      2.01783     15.03608         0.396467      0.037419     -0.057864
O       7.85824     13.67731      2.59861        -0.352173     -0.141302     -0.416400
O       7.82785     13.64629     15.03330        -0.051261      0.522212      0.289213
O       7.75039      1.98631      6.65017         0.134045      0.111100     -0.113503
O       7.73618     13.60356      6.83987         0.105359      0.257679     -0.290638
O       7.75567      1.90996     10.83670         0.154926     -0.102748      0.311134
O       7.75270     13.73203     10.62586         0.368729     -0.455109      0.566480
O       7.87211      5.94088      2.72480        -0.230832     -0.351724     -0.550303
O       7.76972      5.82903     14.88909        -0.057833     -0.069403      0.250417
O       7.82226      5.78836      6.57815        -0.384728      0.032636      0.231218
O       7.77462      5.86957     11.02619        -0.124152     -0.340426     -0.517914
O       7.73971      9.76193      2.54410         0.256857     -0.558376      0.073251
O       7.77058      9.55450     14.93382         0.381642      0.371737      0.505575
O       7.78563      9.76769      6.83287         0.336102     -0.115406     -0.388106
O       7.71941      9.80419     10.95563         0.694814     -0.226966     -0.085756
O      11.72038      1.97887      2.40235        -0.093059      0.116592      0.491367
O      11.67744      2.05784     15.08420         0.176141     -0.109202     -0.334893
O      11.72918     13.58402      2.60501         0.045612     -0.026320     -0.458145
O      11.63155     13.67518     14.89680         0.135828     -0.415917     -0.019085
O      11.60475      1.90477      6.66775         1.087516      0.094417      0.150389
O      11.61619     13.67150      6.69872         0.847945      0.417688      0.196868
O      11.69397      1.95464     10.82020        -0.739435     -0.153234     -0.028262
O      11.71420     13.75411     11.03307         0.222951     -0.258695     -0.684978
O      11.78653      5.70823      2.32185        -0.756720      0.036312      0.634865
O      11.70689      5.82317     15.10486         0.085659      0.076932     -0.050507
O      11.67390      5.90199      6.79425        -0.506313     -0.048134     -0.033795
O      11.67892      5.77508     10.75281        -0.525970      0.250686      0.092572
O      11.67398      9.87215      2.48444         0.835520     -0.384781      0.233113
O      11.67326      9.85824     15.05023         0.188641     -0.282420     -0.175371
O      11.68738      9.68395      6.74024        -0.885657     -0.037638     -0.172294
O      11.57491      9.76753     10.85029         0.819066     -0.141651     -0.178092
O       1.89631      3.86553      2.61618        -0.189120      0.010884     -0.576750
O       1.98974      3.80024     15.07864        -0.817540      0.385944     -0.294508
O       1.97114     15.54069      2.51395        -0.108325     -0.477839      0.124656
O       2.03311     15.53969     15.18114        -0.485108      0.384297     -0.595256
O      13.84249      3.86696      2.41958        -0.617162     -0.007081     -0.181439
O      13.76502      3.90830     14.97688         0.177083     -0.045819      0.454934
O      13.64025     15.55355      2.39292         0.014035      0.259343      0.759412
O      13.59297     15.57232     15.07721         0.082593      0.276414     -0.368506
O       1.84309      3.93419      6.70982         0.022501     -0.080664     -0.502967
O       1.84213     15.53354      6.70458         0.237055      0.774602      0.271924
O      13.47307      3.88930      6.71979         0.422998     -0.248243     -0.015264
O      13.56106      0.04077      6.72137        -0.004070     -0.208903     -0.325196
O       1.84843      3.88704     10.89320        -0.002401     -0.128086      0.037600
O       1.74794      0.05646     10.67467         0.723536     -0.928672      0.106790
O      13.64906      3.88236     10.97356         0.130278      0.622853     -0.302258
O      13.72994      0.01990     10.85934        -0.315572     -0.912632     -0.112101
O       2.18651      7.79061      2.31439        -0.642519     -0.173580      0.227571
O       1.86860      7.79980     15.10253         0.590829     -0.033952     -0.169157
O      13.57341      7.78916      2.43874         0.195263      0.330949      0.425713
O      13.61128      7.82666     14.77002        -0.021306      0.429604      0.810963
O       1.84630      7.81082      6.81151        -0.103308      0.076028     -0.063353
O      13.62142      7.79624      6.62375        -0.026733      0.414480      0.315145
O       1.93981      7.77175     10.90595        -0.194939      0.369567     -0.255252
O      13.54600      7.77217     10.94632         0.093863      0.484104     -0.287855
O       2.02941     11.67771      2.62129        -0.355318     -0.001320     -0.484557
O       1.92912     11.64597     14.99387         0.032683      0.410063      0.083564
O      13.75534     11.66211      2.49324        -0.101761      0.397955     -0.104867
O      13.66441     11.78328     14.92219        -0.214664     -0.999036      0.083987
O       1.96306     11.68255      6.62723        -0.523241      0.091742      0.227640
O      13.48605     11.72458      6.77008         0.347254      0.069381     -0.154868
O       1.88177     11.69795     10.93482         0.190030     -0.380215      0.075276
O      13.66648     11.75983     10.86327        -0.437417     -0.471038     -0.299092
O       5.94276      3.84258      2.72665        -0.403907     -0.875293     -0.823757
O       5.73803      3.87846     14.80809         0.357337      0.564664      0.734178
O       5.84174     15.53331      2.53703        -0.058081      0.858212      0.190654
O       5.91684     15.56379     15.05517        -0.268579      0.900424     -0.113391
O       5.76601      3.95922      6.75575         0.533423     -1.148913     -0.127622
O       5.79816      0.04034      6.80615        -0.067749     -0.890301     -0.766718
O       5.84815      3.81152     10.86619         0.033337      0.557408      0.290088
O       5.80137     15.50236     10.78738        -0.184853      1.022671      0.382854
O       5.82805      7.71911      2.52062        -0.243175      0.913117      0.118626
O       5.79959      7.71418     15.03616        -0.141300      0.217104      0.138796
O       5.83584      7.67987      6.77723        -0.054144      1.340559     -0.127260
O       5.77849      7.79277     10.90746         0.466937     -0.402292     -0.188037
O       5.91835     11.67641      2.33974        -0.480433      0.139342      0.631457
O       5.99778     11.72854     15.04461        -0.571160     -0.630726      0.262978
O       5.76408     11.65651      6.74278        -0.009708      0.641823      0.230248
O       5.79624     11.71571     10.81215        -0.085962     -0.592725      0.275762
O       9.65577      3.91759      2.35385         0.377965     -0.502932      0.474770
O       9.77570      3.95452     15.16639        -0.277072      0.235371     -0.579106
O       9.83185     15.53303      2.50410         0.036609      0.334567      0.347860
O       9.80716      0.13736     14.94128        -0.421694     -0.828015      0.092529
O       9.73730      3.88698      6.72092         0.407941     -0.054533      0.074956
O       9.57737      0.06737      6.58011         0.313235     -1.101965     -0.021220
O       9.65049      3.87770     10.77728         0.146504     -0.045085      0.184819
O       9.75228     15.60132     10.88714        -0.054427      0.502400     -0.175516
O       9.82560      7.86936      2.74982         0.148259     -0.640904     -0.324352
O       9.77369      7.76206     14.91629         0.343347      0.243195      0.239136
O       9.59701      7.76824      6.60345         0.809319      0.349454      0.012941
O       9.63205      7.74631     10.77461         0.418696      0.813147      0.346385
O       9.69672     11.63405      2.68302         0.223165      1.118797     -0.770163
O       9.57890     11.68745     15.03001         0.783638      0.040328     -0.292013
O       9.67658     11.75521      6.79452         0.498723     -1.019147      0.095164
O       9.73311     11.72408     10.84502        -0.094062      0.241034     -0.000640
