  # total energy = -7880.37770700 
CRSYTAL
PRIMVEC
    15.6080000000000005    0.0000000000000000    0.0000000000000000
     0.0000000000000000   15.6080000000000005    0.0000000000000000
     0.0000000000000000    0.0000000000000000   16.6239999999999988
PRESSURE
-0.339265 -0.459732 -0.637133 -0.149392 -0.258387 0.074751
PRIMCOORD
320 1
Pb       3.99162      3.98414      4.16926        -0.246853     -0.317683     -0.515432
Pb       4.05992      4.08989      0.12686        -0.226862     -0.550747     -0.354788
Pb       3.88080      0.02663      4.02833        -0.037534     -0.392599      0.417694
Pb       3.77595     15.57301     16.61785         0.341805      0.010053     -0.365038
Pb       0.08577      3.84123      4.13614        -0.172885      0.139074      0.010535
Pb      15.46249      3.83325      0.01145         0.680134     -0.155541     -0.400976
Pb      15.53301     15.57963      3.99938        -0.084990     -0.007210      0.559418
Pb      15.49048     15.55695     16.59217        -0.150744     -0.128190     -0.418339
Pb       3.68683      3.81056      8.34343         0.225478      0.399567     -0.431199
Pb       3.88989      0.06546      8.33296         0.395684     -0.437687     -0.670493
Pb      15.56009      3.79716      8.26625        -0.132032      0.543039      0.084200
Pb       0.13722     15.57167      8.19680        -0.457794      0.170982      0.159161
Pb       3.92539      3.95346     12.35573        -0.154333     -0.450011      0.727685
Pb       3.84013     15.41351     12.27459         0.117263      0.841589      1.047239
Pb      15.58525      3.75347     12.42578        -0.169063      0.633170      0.232448
Pb      15.53239      0.28573     12.56023         0.401168     -1.287192      0.410521
Pb       3.81113      7.83978      4.33173         0.219544      0.151125     -0.728398
Pb       3.81247      7.73935      0.02086         0.442110      0.136791     -0.339662
Pb       0.23707      7.89441      4.22073        -1.145916     -0.512663     -0.100654
Pb       0.02896      7.73905      0.03016        -0.312400      0.255567     -0.303693
Pb       4.09110      7.70216      8.06541        -1.090544      0.177326      1.003564
Pb      15.43898      7.76855      8.52289        -0.132557     -0.238574     -0.636831
Pb       3.91432      7.88180     12.45159         0.353108     -0.235753     -0.083529
Pb       0.00469      7.94355     12.58920        -0.234024     -0.512350     -0.590955
Pb       3.84924     11.67144      4.08852        -0.193925      0.108617     -0.185130
Pb       3.92147     11.59357     16.43840         0.004900      0.320797      0.710811
Pb      15.58961     11.65301      4.08406         0.217627      0.000353      0.109807
Pb      15.54755     11.80897     16.55478         0.108689     -0.164977     -0.152618
Pb       3.82539     11.63060      8.08402         0.163501      0.242508      0.666261
Pb      15.55593     11.62641      8.33635         0.464480     -0.041153     -0.117414
Pb       4.05146     11.69688     12.32556        -0.615680     -0.095539     -0.137200
Pb       0.17199     11.52344     12.30092         0.089482      1.072822      0.348861
Pb       7.87656      3.76419      4.19814        -0.636923      0.173226     -0.228065
Pb       7.87192      4.00494      0.11329        -0.583443     -0.291110     -0.104046
Pb       7.80594     15.44984      3.98659         0.055898      0.253849      0.719310
Pb       7.91506      0.16503      0.09553        -0.215116     -0.491509     -0.204795
Pb       7.59135      3.99075      8.32156         0.670769     -0.736858      0.250835
Pb       7.85552     15.50896      8.36017        -0.665461      0.424453     -0.684678
Pb       7.66397      3.81726     12.39943         0.448802     -0.113101     -0.022108
Pb       7.67125     15.56375     12.55460         0.347793      0.112655     -0.789317
Pb       7.70638      7.86329      4.16999         0.164780     -0.334662     -0.395239
Pb       7.88266      8.01434     16.59759        -1.064413     -0.822119      0.144295
Pb       7.79667      7.77253      8.26484         0.551760     -0.085770     -0.067284
Pb       7.87574      7.57446     12.30684        -0.733385      0.648074      0.729530
Pb       7.99165     11.67508      4.32607        -0.391390      0.372543     -0.748322
Pb       7.68419     11.66169      0.04652         0.002499      0.219336     -0.404221
Pb       7.60447     11.73926      8.09097         0.744437      0.156308      0.774502
Pb       7.68663     11.49089     12.41109         0.331363      0.351529     -0.250721
Pb      11.75339      3.95704      4.32997         0.137775     -0.613295     -0.346906
Pb      11.81856      4.08299      0.09589        -0.380366     -0.669843     -0.467598
Pb      11.48269     15.50035      4.14890         0.781418      0.000827     -0.479765
Pb      11.55772     15.53557      0.09811         0.577746     -0.057616     -0.310762
Pb      11.78289      4.06627      8.35747        -0.148908     -0.421681      0.143721
Pb      11.63781      0.10811      8.23798         0.342641      0.121322      0.076828
Pb      11.86662      3.81996     12.60205        -0.654702      0.026667     -0.750342
Pb      11.91792     15.52923     12.41464        -1.025208      0.387710      0.431655
Pb      11.72128      7.44992      4.00377        -0.055746      1.276965      0.814935
Pb      11.36416      7.77454      0.01171         1.564263     -0.016878     -0.376207
Pb      11.54115      7.95874      8.19038         0.649377     -0.336110      0.461416
Pb      11.55698      7.85581     12.64806        -0.048681     -0.158474     -0.469265
Pb      11.57233     11.32156      4.26022         0.769777      1.326510      0.110489
Pb      11.80171     11.78604     16.52510        -0.162170      0.160162      0.037914
Pb      12.06222     11.93355      8.37321        -1.631025     -1.044293      0.394354
Pb      11.64428     11.86052     12.41099        -0.309938     -0.200491      0.044955
Ti       2.00377      2.00740      2.15448        -0.456097      0.006582      1.431019
Ti       1.97438      2.00547     14.66708         0.336693      0.257745     -0.593268
Ti       1.94781     13.68078      2.15930         0.273372     -0.410387     -0.387535
Ti       2.02641     13.64577     14.56453        -1.127923      0.031617     -0.985907
Ti      13.62764      1.99734      2.30525        -0.238315     -1.355770     -0.244370
Ti      13.57436      1.94998     14.74208         0.065986     -1.037812      0.229277
Ti      13.60134     13.57717      2.28238        -0.492691      1.095328     -0.746816
Ti      13.67361     13.64992     14.57433        -0.103913      0.252106     -0.098416
Ti       1.96843      1.89210      6.28258        -0.461650     -0.247786      0.623398
Ti       1.89808     13.51316      6.36910         0.544253      0.343174      0.371043
Ti      13.65043      1.91327      6.36212        -0.000116      0.393585     -0.788673
Ti      13.71382     13.68278      6.35891         0.042816     -0.057174     -1.056121
Ti       1.90071      1.92091     10.56146         0.690417     -0.327579      1.094838
Ti       1.92130     13.66420     10.41143         0.040418     -1.007622      0.662597
Ti      13.63268      2.00140     10.47133        -0.786619     -0.318640     -0.157183
Ti      13.74118     13.66825     10.53023         0.415364      0.468213      0.111401
Ti       1.91208      5.85974      2.21699        -0.192498     -0.384396      0.627524
Ti       1.95542      5.86858     14.54479         0.155787     -0.239998      1.532112
Ti      13.67491      5.82936      2.18161         1.046119      0.173712      0.707654
Ti      13.68218      5.82875     14.66448        -0.474957      1.080613      0.585525
Ti       1.79126      5.78095      6.43630         0.330818     -0.000060      0.703805
Ti      13.60528      5.85473      6.36887         0.528243      0.674409      1.085849
Ti       1.79115      5.78747     10.61926        -0.235106      0.732027     -1.816187
Ti      13.51566      5.97624     10.58403         0.253058     -0.575983     -0.225236
Ti       1.94789      9.70625      2.14675        -0.237533      0.494498      1.309578
Ti       1.90685      9.81028     14.68683         0.121926     -0.628080      0.303878
Ti      13.63190      9.69354      2.22003         0.813270     -0.335039     -0.546444
Ti      13.63860      9.69203     14.72218         0.152000     -0.346231      1.518106
Ti       1.86819      9.58415      6.45386         0.096915      0.618971     -0.585132
Ti      13.61487      9.77314      6.33104         0.180993     -1.213963     -0.537921
Ti       1.96382      9.64667     10.37719         0.348179      0.489940      0.149341
Ti      13.55056      9.80872     10.62102         0.036193     -0.765342     -1.550730
Ti       5.84249      1.87425      2.22412        -0.052877      0.716491     -0.413506
Ti       5.83303      1.87233     14.77021        -1.036943      0.211185      0.017531
Ti       5.83695     13.56436      2.22013        -0.183865     -0.354984      1.319881
Ti       5.82726     13.58162     14.63211        -0.079921      0.581773     -0.249106
Ti       5.79646      1.91416      6.28164         0.424531     -0.922774      0.083297
Ti       5.78812     13.58454      6.19320        -0.151477      1.760849      1.199476
Ti       5.81200      1.93166     10.47436         0.128770     -0.721374      0.843666
Ti       5.85958     13.60708     10.43425        -0.377338     -0.244995     -1.563702
Ti       5.79949      5.90260      2.19909         0.187141     -0.435502     -0.369564
Ti       5.85021      5.81003     14.71585        -0.573292      0.350810     -0.602769
Ti       5.81431      5.69245      6.29804        -0.320989      0.655046      0.178121
Ti       5.69818      5.79913     10.44680         0.314552      0.477046      1.337495
Ti       5.84879      9.73637      2.29627        -0.265332      0.143919     -0.731988
Ti       5.86904      9.65598     14.63378        -0.457772     -0.490834      0.331035
Ti       5.89244      9.68355      6.31629        -0.801279     -0.407386     -1.643958
Ti       5.84017      9.63468     10.35274         0.218881      0.478981      0.657961
Ti       9.76015      1.93898      2.25681         0.147751     -0.387391      0.700112
Ti       9.75599      1.92293     14.70433         0.824595     -0.076526     -0.407108
Ti       9.73386     13.51921      2.18681         0.613409      0.992974     -0.016032
Ti       9.68110     13.64786     14.68144         0.380388     -0.141410     -0.027768
Ti       9.66324      2.05767      6.44032        -0.382859     -0.485266     -0.629107
Ti       9.79431     13.67359      6.42274        -0.459474     -0.822375     -1.982744
Ti       9.78545      1.88392     10.56048        -0.316188      0.762197      0.551924
Ti       9.70954     13.70685     10.54345        -0.373707     -0.268779      0.560321
Ti       9.67049      5.80177      2.20780        -0.976381      0.164537      0.815576
Ti       9.66684      5.67228     14.74427         0.595425      1.378746      0.164415
Ti       9.69459      5.78062      6.39108         0.248532      0.811727     -0.092566
Ti       9.69634      5.72515     10.58432         0.237804     -0.279933     -1.163297
Ti       9.85022      9.74044      2.17198        -1.596544     -0.717068      0.787389
Ti       9.78506      9.79121     14.67552        -0.282220      0.471195     -1.017108
Ti       9.72401      9.79234      6.36943         0.912768     -0.376758      0.493283
Ti       9.75144      9.78657     10.50397        -0.289731     -0.296111     -0.742812
O       1.91967      2.07476      0.43853        -0.246422     -0.373305     -1.654751
O       1.94303      1.84898     12.81945        -0.359952      0.159911      0.849686
O       2.08763     13.60072      0.35875        -0.526131      0.070796      0.971008
O       1.86327     13.62360     12.73938         0.378114     -0.291695      0.492647
O      13.77638      1.96567      0.42993        -0.482829      0.174326      0.624777
O      13.73787      1.94711     12.88810        -0.671910      0.274430      0.181580
O      13.59302     13.77837      0.40318         0.094692     -0.674199      1.105876
O      13.63035     13.65186     12.73780        -0.070878     -0.452045      0.582355
O       1.90354      1.93339      4.56165         0.055604      0.076585     -0.888905
O       1.83940     13.57459      4.64353        -0.092807     -0.024763     -1.323017
O      13.64511      1.84316      4.56377        -0.283468      0.701222      1.011664
O      13.83419     13.59711      4.57684        -0.301388     -0.108717      0.166986
O       1.94682      1.84915      8.81473         0.127231      0.302051     -1.066597
O       1.99063     13.52282      8.62144         0.198980      0.659591      0.455707
O      13.53250      1.96279      8.70748         0.296440     -0.389734     -0.503589
O      13.57356     13.65885      8.71580         0.161415      0.325302     -0.073567
O       1.82704      5.93123      0.47290         0.166764     -0.294174     -0.944302
O       2.06649      5.93824     12.81179        -0.187267      0.079069     -1.015966
O      13.70841      5.63612      0.39460         0.166904      0.124342      0.125813
O      13.42772      5.81113     12.91613         0.198729     -0.063290     -0.676354
O       1.87844      5.83261      4.68629         0.102267     -0.008797     -0.931503
O      13.53230      5.87533      4.62052        -0.180731     -0.341790     -0.959229
O       1.60526      5.69822      8.76389         0.652845      0.054214      0.965177
O      13.57658      5.97031      8.72979         0.193570     -0.132407      1.627878
O       1.91647      9.68938      0.41560         0.071115      0.086547     -0.995048
O       1.83926      9.73655     12.87832        -0.054892     -0.192359     -0.175347
O      13.46618      9.69482      0.46286         0.501061      0.100592      0.196842
O      13.65871      9.66936     12.97871         0.053542      0.227595     -1.866594
O       1.95185      9.60772      4.59046        -0.334155     -0.055202      0.614535
O      13.57396      9.74429      4.47497         0.034815      0.165668      1.260456
O       1.96782      9.70966      8.60772        -0.135433     -0.303650      0.396868
O      13.57858      9.74584      8.79955         0.196824      0.031280      0.013020
O       5.83258      1.88516      0.41177         0.218739      0.049072      0.559997
O       5.76868      1.83377     12.99123         0.630521      0.226532     -0.034418
O       5.67800     13.38409      0.51544         0.384465      0.270334     -2.038859
O       5.74109     13.51304     12.78987         0.735324      0.447471      1.131700
O       5.77369      2.04489      4.49780         0.093004     -0.333423     -0.007327
O       5.83792     13.72152      4.45244         0.137528     -0.538349      0.463696
O       5.76646      1.98018      8.74798        -0.168835     -0.175127     -1.323313
O       5.73286     13.54247      8.56382         0.587486     -0.008430      0.881739
O       5.74823      5.89469      0.35759        -0.000227     -0.480301      0.444856
O       5.70956      5.87551     12.88102         0.216060     -0.383530      0.237832
O       5.74925      5.82599      4.53439        -0.014289     -0.037140     -0.167511
O       5.85676      5.84065      8.70563         0.077675     -0.111495     -1.147939
O       5.85498      9.75219      0.42650         0.094167      0.167706      0.363509
O       5.78150      9.62486     12.85520         0.139329      0.460582      0.042447
O       5.82143      9.53709      4.43729        -0.111939      0.349552      1.519325
O       5.80881      9.59835      8.55939         0.506703      0.428127     -0.395054
O       9.86164      1.84456      0.51136        -0.689562      0.048694     -0.997717
O       9.73849      2.05824     12.92850        -0.182507     -0.227232      0.365057
O       9.91826     13.63916      0.37581        -0.522898      0.044086      0.599023
O       9.65678     13.56517     12.88531         0.057051      0.085168     -0.005399
O       9.54238      2.05073      4.57206         0.655503     -0.047138      1.522962
O       9.72689     13.52292      4.45744        -0.031379      0.172442      1.986589
O       9.55488      1.77505      8.79270         0.534550     -0.234123     -0.893939
O       9.67732     13.69375      8.75473        -0.040685      0.283354     -0.695393
O       9.60892      5.85493      0.43982         0.718426     -0.071976     -0.539143
O       9.61128      5.76054     13.00610         0.354269     -0.224559     -1.373006
O       9.75081      5.67132      4.58336         0.089412      0.088920      0.043154
O       9.58660      5.82353      8.77092         0.268843      0.272021      0.255593
O       9.65433      9.62329      0.38024         0.262346      0.450581      0.101454
O       9.80353      9.81895     12.84875        -0.066698     -0.062053      0.995870
O       9.80237      9.80504      4.54714        -0.464876     -0.193860     -0.423349
O       9.70822      9.67630      8.67621        -0.200594     -0.308627      0.538045
O       3.86412      2.05055      2.50886         0.272323     -0.526832     -0.061851
O       3.88305      1.89298     15.09723        -0.823290      0.341513     -0.295816
O       3.93056     13.63760      2.56834        -1.416932     -0.338274      0.234801
O       3.88497     13.58380     14.82204         0.458687     -0.491008      0.290503
O      15.50315      1.88565      2.59209         0.850390      0.245699     -0.420544
O      15.55924      1.94091     14.91168         0.589140     -0.189014      0.374207
O      15.57294     13.82015      2.40163         0.615054     -0.596183     -0.116578
O      15.53522     13.69902     14.93673         0.277749     -0.545025      0.382711
O       3.86150      1.85275      6.62015         0.043222      0.182872      0.489213
O       3.84510     13.49108      6.49628         0.652733      0.276983      0.176922
O      15.58646      2.02449      6.66821        -0.474657     -0.585325      0.050381
O       0.02390     13.59928      6.75011        -0.777086      0.051525      0.227794
O       3.90971      1.91093     10.86705        -0.950606      0.059705     -0.341390
O       3.94523     13.61691     10.80583        -1.516561     -0.314670     -0.440994
O      15.51783      1.82302     10.80594         1.006052      0.658151     -0.067787
O       0.00931     13.51908     10.59589        -0.360752      0.289486      0.085104
O       3.78097      5.73918      2.45276         0.690067      0.329499      0.190949
O       3.86570      5.82081     15.03396        -0.335304     -0.102332      0.033342
O      15.55045      5.92999      2.59459        -0.283713     -0.763363     -0.129305
O      15.59144      5.83589     14.84915         0.376406      0.051120      0.044192
O       3.88410      5.83494      6.73164        -0.085960     -0.299360     -0.289989
O      15.51101      5.83257      6.66904         0.091212     -0.371130      0.061531
O       3.82013      5.74510     10.70113        -0.194787      0.241104      0.006212
O      15.50203      5.85154     11.05612        -0.159048      0.057222     -0.327910
O       3.80772      9.80481      2.50368         0.574533     -0.320195      0.112403
O       3.81594      9.71177     14.93770         0.714863      0.321712     -0.080538
O      15.59686      9.54120      2.47309        -0.523544      0.584704      0.073562
O      15.52766      9.69640     15.12870         1.331165      0.083000     -0.391255
O       3.84112      9.59279      6.51890         0.886353      0.051732      0.241563
O      15.54603      9.79205      6.64645        -0.190534     -0.378742      0.037820
O       3.97542      9.70509     10.73086        -1.314118     -0.105097      0.100542
O      15.59393      9.78140     10.70956         0.033946     -0.476201      0.362578
O       7.75391      1.79193      2.49823        -0.471187      0.326438     -0.219981
O       7.88387      1.89426     15.06828        -1.430444      0.010554      0.051139
O       7.80343     13.61165      2.46769         0.109584     -0.009355     -0.292723
O       7.78733     13.64244     15.03294        -0.882679      0.365142     -0.138691
O       7.68096      1.98606      6.67489         0.810021      0.266020      0.103172
O       7.83669     13.53450      6.52833        -0.689659     -0.043628      0.386832
O       7.70108      2.02455     10.86788         0.134061     -0.707562      0.263377
O       7.68634     13.69292     10.79391         1.415642     -0.084562      0.150413
O       7.72315      5.90649      2.35726         0.611923     -0.127405      0.585956
O       7.78503      5.75916     15.04830        -0.161075     -0.044031     -0.038132
O       7.74285      5.63614      6.58548        -0.004636      0.831991      0.147601
O       7.75292      5.75492     10.78407        -0.368689     -0.085536      0.486841
O       7.70079      9.57855      2.59694         1.290801      0.428655     -0.479107
O       7.77219      9.74746     14.95196         0.159768      0.091962     -0.074322
O       7.83858      9.68010      6.56666        -1.329140      0.153211     -0.014097
O       7.77089      9.72202     10.80410        -0.240127     -0.463520     -0.173597
O      11.60168      1.86745      2.62437         0.690420      0.678724      0.029770
O      11.66425      1.89281     15.04472         0.839918      0.243191     -0.229323
O      11.65772     13.56084      2.59209         0.642995     -0.042405     -0.259942
O      11.73757     13.63377     14.91940        -0.228292     -0.463972     -0.180555
O      11.61801      2.15063      6.72461        -0.278140     -1.332450     -0.301085
O      11.70936     13.59767      6.65054        -0.282688      0.484328     -0.052554
O      11.72537      1.85540     10.80667        -0.144663      0.050263      0.137130
O      11.57435     13.73898     10.80715         0.646259     -0.637475      0.089406
O      11.69902      5.66655      2.48138        -0.958295      0.017070     -0.149140
O      11.73527      5.90932     15.11104        -0.969636     -0.426579      0.041386
O      11.71615      5.79289      6.71653        -1.481170      0.211947     -0.242602
O      11.57965      5.66717     10.86147         1.428012      0.702465      0.078856
O      11.65626      9.70942      2.46584         0.124925      0.275923      0.123400
O      11.70010      9.73811     14.98320        -0.990770     -0.048996     -0.006976
O      11.67914      9.75365      6.64743         0.236925      0.285984     -0.239341
O      11.65989      9.73985     10.75759        -0.082287     -0.168642      0.669898
O       1.85061      3.90519      2.53270        -0.410799     -0.237396      0.106942
O       1.83780      3.89104     14.68026         0.390790     -0.186094      0.555433
O       2.05453      0.01408      2.45588        -0.323744     -0.121080     -0.121541
O       1.93600     15.44505     14.89875         0.057647      2.029100      0.586766
O      13.62061      3.85022      2.69521         0.047703      0.202835     -0.482956
O      13.53454      3.86171     14.96436         0.306677      0.232285      0.099595
O      13.51497     15.56358      2.69049         0.052227      0.060600     -0.573898
O      13.62012     15.59085     14.86578         0.193891      0.015246      0.183655
O       1.92555      3.80349      6.68969         0.060476      0.546069      0.319319
O       1.88639     15.59703      6.67290         0.252326     -0.529736      0.145303
O      13.56804      3.91139      6.71297         0.415600     -0.162534     -0.230073
O      13.66774     15.59564      6.61991        -0.284117      0.302449      0.422480
O       1.84197      3.86880     10.81539         0.036111     -0.568820      0.372187
O       1.89230     15.60249     10.82905         0.227079     -0.966373     -0.675954
O      13.64978      3.86713     10.72951        -0.045859      0.459250      0.552830
O      13.63063     15.54361     10.87195         0.330724      0.162401     -0.478658
O       1.88635      7.74938      2.59904         0.795295      0.524346     -0.250618
O       2.08630      7.80049     15.02538        -1.331792     -0.223013     -0.535652
O      13.53848      7.67097      2.45382        -0.327232      0.634874     -0.107889
O      13.72060      7.76018     15.06404        -0.336096     -0.231258     -0.320040
O       1.86447      7.66578      6.76312        -0.035134      0.859893     -0.171861
O      13.60823      7.86122      6.73736         0.045644      0.095826     -0.329295
O       1.84658      7.74141     10.70976         0.207353      0.779396      0.326118
O      13.62744      7.84998     10.93751        -0.147742     -0.930736     -0.121431
O       1.86932     11.71089      2.54525        -0.196095     -0.038678     -0.197350
O       1.89474     11.71495     14.89711        -0.327465     -0.766814      0.339368
O      13.78525     11.64836      2.47069        -0.271263      0.253449     -0.171172
O      13.70122     11.62758     15.03430        -0.314639      1.040907     -0.153250
O       1.92048     11.53000      6.70532        -0.141186      0.945869     -0.312418
O      13.66396     11.77025      6.72017         0.029620     -1.038160     -0.198984
O       1.88165     11.63365     10.67255         0.646407      0.018514      0.285617
O      13.51619     11.69636     10.68483         0.096420      0.660904      0.723746
O       5.73757      3.94330      2.52366         0.609975     -0.755079     -0.444577
O       5.76645      3.91074     15.04525         0.462626     -0.871586     -0.084695
O       5.78751     15.51585      2.53323         0.009299      1.321186     -0.415690
O       5.62475     15.51693     15.05415         1.331445      0.001979     -0.237691
O       5.70496      3.85476      6.63481        -0.016058      0.005942      0.166743
O       5.87815     15.57810      6.55441        -0.434950     -0.314720      0.264708
O       5.71512      3.87502     10.80353         0.531925      0.140237      0.079257
O       5.79145     15.50371     10.63875         0.105518      1.128078      0.495685
O       5.72264      7.74039      2.43296        -0.248046      0.532351      0.535283
O       5.80879      7.74586     14.90308         0.067256      0.771375      0.385943
O       5.90099      7.79689      6.50119         0.063887     -1.042617      0.582492
O       5.79884      7.74331     10.71080         0.172189     -0.093748      0.126591
O       5.90813     11.66446      2.65505        -0.273150     -0.571490     -0.115239
O       5.85904     11.65732     14.93732        -0.079759      0.040777     -0.051023
O       5.81046     11.61912      6.48084         0.266585     -0.119894     -0.022180
O       5.83044     11.64229     10.73617         0.218739     -0.511027      0.047601
O       9.48197      3.83278      2.48518         0.673173      0.932147     -0.429781
O       9.84285      3.86943     15.12705        -0.335664     -0.177203      0.118174
O       9.73364     15.53080      2.50658        -0.027148      0.014035      0.082567
O       9.79121     15.59399     15.04587        -0.439078     -0.325753     -0.109638
O       9.67584      3.92773      6.84767         0.071770     -0.719057     -0.373338
O       9.65736     15.56548      6.58330         0.456348      0.303786      0.361433
O       9.76988      3.77246     10.78566        -0.451937      1.001300      0.341405
O       9.73762      0.04496     11.00138        -0.810443     -1.285046     -0.242291
O       9.74964      7.78262      2.54211         0.207150     -0.591138     -0.287744
O       9.71846      7.80159     14.91939         0.081158      0.256227      0.236508
O       9.71296      7.75992      6.61258        -0.234681     -0.600834      0.120539
O       9.76626      7.74423     10.99873         0.030489     -0.194115     -0.515437
O       9.68516     11.65532      2.46886        -0.109601     -1.317633     -0.125862
O       9.66031     11.74293     15.07618         0.505314     -1.044513     -0.255564
O       9.68410     11.62693      6.59121         0.076689      0.865710      0.120619
O       9.68251     11.63083     10.79685         0.101729      1.163503      0.135339
