  # total energy = -7887.80252942 
CRSYTAL
PRIMVEC
    15.6080000000000005    0.0000000000000000    0.0000000000000000
     0.0000000000000000   15.6080000000000005    0.0000000000000000
     0.0000000000000000    0.0000000000000000   16.6239999999999988
PRESSURE
-1.22728 -1.12582 -0.214477 -0.025912 -0.015647 -0.006837
PRIMCOORD
320 1
Pb       3.89751      3.89353      4.12989        -0.263195      0.148660      0.168012
Pb       3.90396      3.90708     16.61735         0.064555      0.091919     -0.103707
Pb       3.88179     15.59073      4.11645         0.127983     -0.144721     -0.002786
Pb       3.86924     15.58796     16.59639        -0.060297     -0.123282     -0.062328
Pb      15.59776      3.87624      4.11840         0.320492      0.190678      0.398974
Pb      15.57611      3.87646     16.60285         0.026324      0.050289     -0.163585
Pb      15.57692     15.59027      4.10264         0.035096      0.096942      0.491475
Pb      15.57924     15.58210     16.60096         0.043897      0.058900     -0.386933
Pb       3.86405      3.88159      8.29046        -0.360605     -0.222131      0.022008
Pb       3.88511     15.59852      8.29507        -0.181342     -0.037301     -0.224111
Pb      15.58293      3.87591      8.28007         0.248981     -0.153018     -0.113404
Pb       0.00011     15.58850      8.27299         0.092949     -0.223769      0.000654
Pb       3.88736      3.88961     12.43103         0.020940      0.038763     -0.196292
Pb       3.87527     15.57363     12.41767         0.168526     -0.184650      0.158743
Pb      15.58309      3.86956     12.44312         0.448850     -0.403789     -0.423957
Pb      15.57880      0.01398     12.45480         0.029345      0.160173     -0.062885
Pb       3.87834      7.79191      4.15195        -0.440014     -0.348139     -0.074014
Pb       3.87163      7.77889     16.60784         0.153706     -0.066632     -0.462038
Pb       0.00774      7.79312      4.13773         0.045935     -0.046513     -0.266606
Pb      15.59616      7.78118     16.60307        -0.235291      0.150102      0.155412
Pb       3.90940      7.77468      8.25258        -0.154358      0.092286      0.121344
Pb      15.56879      7.78570      8.30769         0.203071     -0.166396     -0.181245
Pb       3.88533      7.79462     12.44492         0.187895     -0.060362     -0.132647
Pb      15.59571      7.79359     12.45357        -0.107234      0.339807      0.041114
Pb       3.87738     11.68294      4.12278         0.115120      0.293549     -0.106896
Pb       3.88778     11.67112     16.57866        -0.194797      0.093534     -0.144315
Pb      15.58754     11.68160      4.12430         0.239536     -0.259689     -0.083826
Pb      15.58470     11.70143     16.58720         0.064844     -0.407977      0.127754
Pb       3.87436     11.68121      8.26370        -0.375727     -0.004716      0.111792
Pb      15.58419     11.67533      8.28955         0.188886      0.439419      0.233235
Pb       3.90441     11.68595     12.42761        -0.156052      0.101215     -0.158644
Pb       0.00425     11.66926     12.42199        -0.089918     -0.030892     -0.174789
Pb       7.79662      3.87100      4.13527         0.022330      0.055061     -0.014146
Pb       7.79732      3.89594     16.61760         0.083752      0.314215     -0.163219
Pb       7.79244     15.57227      4.10908        -0.146938      0.042202      0.073240
Pb       7.79974      0.00571     16.60779         0.184803     -0.142383      0.033932
Pb       7.75908      3.89423      8.28497         0.253825      0.100309      0.094812
Pb       7.78955     15.57966      8.29461        -0.124138      0.095507     -0.253606
Pb       7.77633      3.87541     12.43784        -0.405992      0.011140     -0.392538
Pb       7.77571     15.58645     12.44851        -0.303365     -0.014517     -0.092957
Pb       7.77787      7.79250      4.13297         0.048077     -0.043155     -0.074095
Pb       7.80313      7.81059     16.60152        -0.283270     -0.167529     -0.218371
Pb       7.78793      7.78218      8.28069        -0.079983     -0.032670     -0.151438
Pb       7.80905      7.76196     12.41348        -0.592218     -0.098908      0.415395
Pb       7.81438     11.68525      4.15240        -0.556604     -0.022263     -0.363670
Pb       7.77674     11.68423     16.60867         0.007480     -0.254969     -0.228820
Pb       7.76334     11.69586      8.26053         0.215549     -0.138713      0.000746
Pb       7.77666     11.66126     12.43319        -0.144233      0.074849      0.146624
Pb      11.69398      3.89490      4.14013        -0.209215     -0.107342      0.390544
Pb      11.70035      3.91008     16.61287        -0.207530     -0.131815     -0.419359
Pb      11.65775     15.58020      4.12370        -0.084648      0.048321     -0.287925
Pb      11.67076     15.58332     16.61198         0.008807      0.109812     -0.135769
Pb      11.70783      3.89652      8.28372        -0.405283      0.358042      0.130344
Pb      11.68679      0.00067      8.27234        -0.053051     -0.335524      0.316284
Pb      11.71486      3.87690     12.45370        -0.395160     -0.361228     -0.010657
Pb      11.71747     15.58273     12.43947        -0.011660     -0.021449     -0.215055
Pb      11.68590      7.74022      4.11238         0.273063      0.425750      0.015312
Pb      11.64742      7.78313     16.59804         0.046336     -0.008726      0.104118
Pb      11.67246      7.80758      8.26714         0.198493     -0.044310     -0.224201
Pb      11.66987      7.78518     12.45986         0.184295      0.443722      0.068137
Pb      11.66822     11.65084      4.14577        -0.050271     -0.328212     -0.452414
Pb      11.70394     11.70013     16.58966        -0.181860     -0.244337     -0.045790
Pb      11.73215     11.71256      8.29171        -0.044946     -0.198498      0.179620
Pb      11.68072     11.70577     12.44212         0.079206     -0.077134     -0.656641
Ti       1.93077      1.96717      2.20767         0.135393     -0.202550      0.060347
Ti       1.91751      1.97258     14.70409         0.268104     -0.879547     -1.140887
Ti       1.88136     13.67276      2.21607         1.297554     -0.408221     -0.421017
Ti       1.87860     13.63482     14.71254         0.466280      0.118121      0.531576
Ti      13.62858      1.93515      2.23816         0.105227     -0.610690      0.558603
Ti      13.66383      1.91035     14.64920        -0.875443     -0.343954      0.186323
Ti      13.67216     13.62370      2.19763        -0.929010      0.129538      0.587565
Ti      13.61441     13.60104     14.66003         0.273176      0.589080      0.744601
Ti       1.91375      1.87183      6.36379         0.025340      0.640679     -0.114929
Ti       1.95582     13.63472      6.39522        -0.237548     -0.234035      0.181893
Ti      13.57258      1.96222      6.39750         1.116544     -0.180883     -0.119351
Ti      13.59704     13.65919      6.37422         0.811308     -0.113862      0.457398
Ti       1.97677      1.85990     10.54695        -0.751641      1.235257     -0.810962
Ti       1.89035     13.61573     10.54313         0.924287     -0.162309     -0.892649
Ti      13.59176      1.94174     10.47390         0.851102     -0.529065      1.060628
Ti      13.64510     13.65407     10.54685        -0.154390     -0.271536     -0.399689
Ti       1.89418      5.84681      2.18348         0.240417      0.334197      1.168442
Ti       1.92594      5.83641     14.65351         0.764773      0.407765     -0.238261
Ti      13.58180      5.76273      2.27225         0.778141      1.565638     -0.160812
Ti      13.65460      5.83075     14.68410         0.034283      0.335235      0.899814
Ti       1.93591      5.81081      6.42559        -0.225190     -0.121764     -0.708711
Ti      13.65363      5.83653      6.43856        -0.129231      0.309835     -0.919814
Ti       1.83058      5.88440     10.54611         1.166335     -0.825216     -0.501068
Ti      13.57883      5.84148     10.61405         0.382274      0.273027     -1.906453
Ti       1.96541      9.75357      2.21319        -0.885466     -0.438606      0.099949
Ti       1.88500      9.73120     14.70852         0.642488     -0.085431      0.428965
Ti      13.62083      9.75350      2.15904         0.556351     -1.035265     -0.467908
Ti      13.64373      9.74671     14.72182        -0.159864     -0.679411      0.463945
Ti       1.91675      9.72318      6.38248         0.272994     -0.198766      0.205592
Ti      13.68629      9.71139      6.37752        -0.890202     -0.180119      0.499253
Ti       1.91233      9.71564     10.52841         0.605474      0.688941     -0.857261
Ti      13.64076      9.74110     10.47119        -0.134205      0.431183      0.799511
Ti       5.83806      1.93979      2.22843        -0.154537     -0.113637     -0.266795
Ti       5.81566      1.88489     14.74169        -0.449127      0.389612     -1.271633
Ti       5.83125     13.63594      2.21963        -0.445025     -0.342521      0.776642
Ti       5.83829     13.62544     14.67517        -0.290731      0.033360     -1.085682
Ti       5.82376      1.95668      6.37675        -0.035312     -0.921612      0.342707
Ti       5.85932     13.64065      6.39727        -0.644914      0.564336     -2.159045
Ti       5.84091      1.88743     10.50794        -0.470817      0.614249      0.139863
Ti       5.84927     13.62087     10.44579        -0.981792      0.162589      2.504108
Ti       5.77342      5.85260      2.20647         0.110426     -0.512935      0.341187
Ti       5.84299      5.79669     14.66540        -0.604045      1.016244      0.918436
Ti       5.83764      5.77691      6.38458        -0.399449      0.609877     -0.948886
Ti       5.77168      5.84753     10.49415         0.194165     -0.534429      0.290344
Ti       5.81588      9.69425      2.16780         0.137879      0.708512      1.226979
Ti       5.82312      9.76212     14.66084        -0.252419     -1.009012     -0.146281
Ti       5.83873      9.74216      6.33739        -0.307393     -0.256747      0.305952
Ti       5.86201      9.76019     10.52695        -0.947499     -0.565103      0.378824
Ti       9.75865      1.95857      2.22725        -0.451493     -0.781254      0.529658
Ti       9.70759      1.89309     14.68353         1.076503      0.266350      0.452675
Ti       9.72636     13.60793      2.20564         0.253067      0.420431      1.009684
Ti       9.71384     13.60618     14.68113         0.387234      0.337878      0.980894
Ti       9.71088      1.90326      6.42234        -0.348642      0.883151     -1.293662
Ti       9.71376     13.62529      6.33625        -0.163684     -0.006295      0.367207
Ti       9.69549      1.92442     10.54986         0.406810     -0.092043      1.116436
Ti       9.66245     13.65352     10.55607         1.264528     -0.401854     -0.270360
Ti       9.68909      5.80348      2.23003         0.290893      0.419834     -0.953744
Ti       9.74354      5.84409     14.68909        -0.142991     -0.215430      0.356269
Ti       9.71013      5.87798      6.36277         0.729686     -0.607780     -0.346203
Ti       9.74069      5.87351     10.52756        -1.015316     -0.677168      0.221365
Ti       9.69785      9.68710      2.22526         0.560852      0.400401      0.302920
Ti       9.72441      9.75099     14.66009        -0.255595     -0.407582      0.066078
Ti       9.71018      9.74365      6.41205         0.833357     -0.462612     -0.310907
Ti       9.69407      9.69482     10.57801         0.655453      1.150163     -0.204423
O       1.90406      2.01080      0.41700         0.045627     -0.187870     -0.084694
O       1.86906      1.85920     12.86855         0.237589      0.367711      1.098618
O       1.98149     13.67032      0.40626        -0.283479     -0.176136      0.661728
O       1.94256     13.65320     12.97517        -0.085717     -0.158729     -1.253733
O      13.60753      1.90638      0.48276         0.156073      0.053966     -0.049857
O      13.57276      1.90136     12.87647         0.207678      0.239315     -0.012606
O      13.63117     13.69050      0.44294         0.224379     -0.201396     -0.206018
O      13.69385     13.64779     12.92984        -0.265922     -0.299366     -1.069128
O       1.99978      1.95283      4.58315        -0.322447     -0.291933      0.003772
O       1.82194     13.59724      4.61072         0.348266     -0.007192     -0.055338
O      13.62306      2.03575      4.62145        -0.091817     -0.161700      0.243545
O      13.69909     13.69412      4.60627        -0.209273     -0.490312      0.173844
O       1.98125      1.91153      8.70726        -0.122948      0.032817      0.640049
O       1.94822     13.61924      8.75830         0.148942      0.198739      0.137133
O      13.68204      1.96425      8.72157        -0.238912     -0.171197     -0.545012
O      13.61425     13.59582      8.77564        -0.049491      0.460375     -0.475939
O       1.90986      5.79555      0.43470        -0.041605     -0.186161     -0.655009
O       1.98078      5.86502     12.86572        -0.311530      0.017132      0.136957
O      13.70521      5.82542      0.50745        -0.170007     -0.357592     -0.426187
O      13.62280      5.88355     12.92988        -0.063183     -0.249067     -1.038007
O       1.95887      5.89324      4.64843        -0.058611     -0.397677     -0.383968
O      13.61519      5.83467      4.62882        -0.098753     -0.074991     -0.176725
O       1.83202      5.89497      8.72292         0.143731     -0.316397      0.887520
O      13.62618      5.81967      8.78775        -0.050471      0.067470      0.990314
O       2.01611      9.69599      0.44639        -0.345295      0.215278     -0.489921
O       1.97826      9.81533     12.94574        -0.373475     -0.245187     -0.432954
O      13.80098      9.76527      0.33299        -0.922687     -0.037940      1.048294
O      13.71510      9.76721     12.96010        -0.179984     -0.067108     -0.545190
O       1.94229      9.66650      4.60150        -0.214032      0.237260      0.008072
O      13.56560      9.67254      4.62550         0.302665      0.419194     -0.146036
O       1.88013      9.76090      8.73088         0.229416     -0.479409      0.467112
O      13.68221      9.73305      8.72117        -0.232421     -0.031625     -0.380998
O       5.76065      1.87504      0.42139         0.593240      0.164981      0.514941
O       5.82751      1.93671     12.90617         0.187498     -0.169786      1.049892
O       5.75367     13.62741      0.44140         0.397607     -0.111369     -0.269690
O       5.84512     13.69068     12.85979         0.160110     -0.221577      0.798012
O       5.88225      1.87971      4.63026        -0.141746      0.264197     -0.835051
O       5.88905     13.59616      4.52812        -0.061124      0.041885      1.132223
O       5.83364      1.90512      8.71831         0.020039      0.030301      0.150427
O       5.90582     13.65575      8.73131         0.041187     -0.175576     -1.408169
O       5.75275      5.84777      0.44200         0.176292     -0.185877     -0.024401
O       5.75014      5.81733     12.92284         0.326539     -0.021742     -0.683327
O       5.78194      5.77863      4.54694         0.406103      0.253619      1.290866
O       5.82417      5.72659      8.71014         0.179043      0.316625     -0.218841
O       5.88620      9.77913      0.43818        -0.291267      0.023745     -0.690225
O       5.80973      9.77967     12.86666        -0.023515     -0.175593      0.256285
O       5.92505      9.67850      4.58357        -0.455802     -0.019480      0.039116
O       5.81566      9.75910      8.76281         0.454745      0.038465     -0.511877
O       9.74495      1.77489      0.46616        -0.081249      0.537126     -0.352487
O       9.75128      1.89446     12.90478        -0.063451      0.169146      0.144564
O       9.75119     13.65462      0.46790        -0.028312     -0.108807     -1.098241
O       9.74246     13.64740     12.94879         0.096239     -0.109203     -1.199971
O       9.75239      1.99536      4.60637        -0.044877     -0.038623      1.221025
O       9.71109     13.62450      4.55972         0.127509     -0.025113      0.705137
O       9.78907      1.89496      8.83810        -0.340763     -0.181604     -1.965624
O       9.70420     13.71300      8.78206        -0.096821     -0.221459     -0.076305
O       9.75154      5.83475      0.40320        -0.036281     -0.033438      0.633227
O       9.82790      5.84192     12.89715        -0.384977     -0.116941      0.330587
O       9.63778      5.81385      4.55401         0.588450      0.037418      0.465683
O       9.73041      5.85250      8.76702        -0.039839      0.309913      0.121771
O       9.77558      9.73488      0.46722        -0.316877      0.164496     -0.391064
O       9.66525      9.68026     12.86491         0.446472      0.310793      0.683736
O       9.70077      9.68796      4.64063         0.146526      0.344848     -0.587523
O       9.72207      9.72436      8.81071        -0.358202     -0.378139     -0.440568
O       3.92743      1.99036      2.54937        -0.112043     -0.429723     -0.100767
O       3.92750      1.89947     15.02908        -1.002274      0.341062     -0.012856
O       3.85321     13.61640      2.60797        -0.209140     -0.074990     -0.188850
O       3.98502     13.54992     14.91131        -0.937591     -0.149822      0.474550
O      15.55947      1.85779      2.56351         0.539099      0.695271     -0.194159
O      15.59816      1.92558     14.98443         0.324031     -0.071013      0.200536
O      15.58725     13.59595      2.59866        -0.011937      0.181787     -0.528760
O      15.54670     13.71087     14.99599         0.488056     -0.612072      0.297811
O       3.93048      1.88823      6.65898        -0.394157      0.201238      0.257738
O       3.90468     13.65825      6.68453        -0.135537     -0.236419      0.166813
O      15.59049      1.79688      6.69246        -0.246829      0.897690     -0.155673
O       0.08532     13.62929      6.82241        -1.444930     -0.076015     -0.481845
O       3.84604      1.94920     10.82582         0.858477     -0.081109      0.146977
O       3.86735     13.64575     10.77279         0.722124     -0.108570      0.373350
O      15.57267      1.98392     10.88788        -0.047486     -0.001296     -0.124712
O       0.04605     13.60763     10.81526        -0.790745      0.439729      0.493166
O       3.82431      5.80330      2.60372         0.695696      0.116685     -0.456959
O       3.87388      5.95340     15.01123        -0.304709     -0.635942      0.092041
O      15.59263      5.90546      2.60286        -0.088839     -0.551542     -0.133746
O       0.03689      5.86953     14.96558        -1.000702     -0.506093      0.133783
O       3.90192      5.82066      6.71684         0.267994     -0.156485      0.109313
O      15.56102      5.76885      6.65055        -0.114143     -0.048038      0.444174
O       3.90767      5.88970     10.80975        -0.862283     -0.215717     -0.006196
O      15.53147      5.85193     10.85294         0.081120     -0.033402      0.272293
O       3.83500      9.72839      2.56905         1.254878     -0.150241     -0.031268
O       3.86662      9.69559     15.01451         0.216014      0.468248      0.039675
O      15.58967      9.72044      2.51000         0.065474      0.016901      0.311881
O      15.57832      9.75564     15.06284         0.359974     -0.309098     -0.336733
O       3.82759      9.73006      6.70083         0.914288     -0.235299     -0.082358
O      15.60396      9.71655      6.74346        -0.440911      0.048553     -0.449088
O       3.88259      9.70117     10.80517         0.093040      0.221082      0.257947
O       0.01312      9.69140     10.80126        -0.558511      0.288303      0.507943
O       7.81065      1.91398      2.62334        -0.715310      0.075660     -0.542034
O       7.82120      1.89414     15.05222        -0.512186      0.092243     -0.058919
O       7.79689     13.67845      2.51146        -0.333405     -0.203638     -0.188697
O       7.83124     13.59474     14.95735        -0.430736      0.470861      0.486093
O       7.76583      1.93191      6.67831         0.546982      0.158592      0.443240
O       7.77521     13.70098      6.69626         0.916088     -0.816295      0.136366
O       7.73699      1.89093     10.88619         0.432824      0.009229     -0.127813
O       7.79115     13.57906     10.85840        -0.252991      0.433599     -0.065058
O       7.86493      5.85101      2.57345        -1.364430     -0.048415     -0.328518
O       7.76805      5.87431     15.05596         0.181654     -0.393686     -0.347207
O       7.83604      5.79177      6.71395        -1.082013      0.428864      0.051996
O       7.76084      5.85170     10.87532         0.551496     -0.274257      0.058060
O       7.75108      9.72602      2.53483         0.314135     -0.072176     -0.019525
O       7.78073      9.74253     15.03363         0.492952     -0.058725     -0.018928
O       7.80173      9.66479      6.61797        -0.973400      0.370507      0.712101
O       7.75925      9.74145     10.94682        -0.075368     -0.228631     -0.526766
O      11.64054      1.97974      2.64436         1.156215     -0.088444     -0.401770
O      11.70612      1.98833     15.04455        -0.212922     -0.167449     -0.134964
O      11.68213     13.73411      2.51955         0.700355     -0.583139      0.180175
O      11.70504     13.63695     15.02134         0.098497     -0.199429      0.001318
O      11.67290      1.90119      6.71133        -0.020000     -0.059549      0.104644
O      11.65815     13.63920      6.71420        -0.013608      0.189438     -0.306800
O      11.74458      1.89566     10.77983        -0.846563     -0.127842      0.405000
O      11.70885     13.66171     10.84373        -0.634761     -0.348003      0.438446
O      11.67883      5.84472      2.55227         0.224102     -0.428463      0.047749
O      11.72958      5.78857     15.00448        -0.198621     -0.097126      0.084556
O      11.70219      5.88683      6.75537        -0.572281     -0.204715     -0.143748
O      11.61867      5.95183     10.88590         0.712543     -0.437147     -0.048404
O      11.66509      9.82855      2.55129         0.039815     -0.125662     -0.032156
O      11.63818      9.68546     15.06141         0.274818      0.344295     -0.333976
O      11.65570      9.68466      6.70764         0.609007      0.240143      0.205461
O      11.73022      9.76529     10.85223        -0.525233     -0.024245      0.210706
O       2.01457      3.82591      2.60200        -0.870041      0.801046     -0.328935
O       1.99619      3.84748     14.93777        -0.256489      0.397140      0.119605
O       1.96647      0.01792      2.47873        -0.189845     -0.536916      0.186240
O       1.95239     15.52601     14.98266         0.087506      0.939829      0.442760
O      13.71222      3.86951      2.57485        -0.381854      0.051663     -0.217919
O      13.73590      3.81676     15.03553        -0.245154      1.093379     -0.110456
O      13.72538     15.58314      2.60925        -0.669814     -0.033956     -0.319409
O      13.70215     15.58963     14.93804        -0.380995      0.056156      0.358725
O       1.90232      3.85081      6.67504         0.125183     -0.308983      0.346960
O       1.93754     15.56445      6.67837         0.302727      0.131658      0.119041
O      13.57685      3.91905      6.76739         0.188509     -1.036643     -0.169230
O      13.68577     15.58517      6.69674        -0.580003     -0.191557      0.058142
O       2.01760      3.94685     10.91607        -0.753975      0.120143     -0.330348
O       1.98004      0.04361     10.82039        -0.409151     -1.218959      0.175423
O      13.56214      3.87771     10.86493         0.043419      0.661724      0.132295
O      13.65022     15.52833     10.89173         0.184291      1.211479     -0.148439
O       1.97691      7.76851      2.51111        -0.204985     -0.198764      0.100187
O       1.84717      7.76071     14.98881         0.291669      0.424705      0.027948
O      13.57385      7.86883      2.46809        -0.070454     -0.991654      0.362181
O      13.54252      7.76027     15.02705         0.656008     -0.309818     -0.071211
O       1.86271      7.67102      6.64424         0.192161      1.800463      0.590656
O      13.64070      7.76757      6.69371         0.179523      0.419528      0.336747
O       1.89164      7.81398     10.91164         0.048299     -0.463551     -0.057978
O      13.60869      7.85576     10.80727         0.158136     -1.066228      0.425177
O       1.92113     11.66981      2.51815        -0.068312      0.530621      0.115220
O       1.90981     11.67203     15.03816        -0.042715      0.174121      0.176327
O      13.67186     11.61443      2.49336        -0.190172      1.878699      0.360694
O      13.69470     11.62620     15.00982        -0.507084      1.325225      0.010908
O       1.96886     11.63864      6.78841        -0.144673      0.259428     -0.598099
O      13.63006     11.69896      6.78371         0.005211     -0.020713     -0.715603
O       1.95240     11.70463     10.82705        -0.052308     -0.561925      0.386674
O      13.71094     11.75500     10.78962        -0.210442     -1.238872      0.639064
O       5.83477      3.90880      2.49297         0.341264     -0.676608      0.053804
O       5.79186      3.91879     15.03828         0.315066     -0.603858      0.079603
O       5.77082     15.54281      2.57059         0.342292      0.661177     -0.294460
O       5.69633     15.60674     15.01216         1.194248     -0.621493      0.013015
O       5.86675      3.90395      6.68649        -0.079805     -0.374305     -0.030173
O       5.84165     15.50763      6.63490         0.099576      1.277201      0.488141
O       5.82342      3.84405     10.87327         0.120160      0.096778     -0.053520
O       5.78662     15.56135     10.85176         0.398938      0.177117     -0.245496
O       5.85986      7.71626      2.52677        -0.239057      0.975824     -0.017238
O       5.77625      7.81990     15.10907         0.611348     -0.005891     -0.454618
O       5.77537      7.80817      6.76612         0.523880     -0.391333     -0.325865
O       5.77502      7.72392     10.81773         0.650344      0.997212     -0.011221
O       5.79827     11.61990      2.59092         0.192910      0.403821     -0.325658
O       5.96588     11.65104     14.95911        -0.522550      0.534267      0.289446
O       5.81103     11.72729      6.61619         0.365469     -1.312428      0.472605
O       5.86911     11.68510     10.82886        -0.128933      0.085313     -0.095868
O       9.69731      3.88730      2.46406         0.225829     -0.106638      0.148608
O       9.74165      3.91477     15.10782        -0.264217     -0.547903     -0.395201
O       9.77607      0.02691      2.58338        -0.147816     -0.539238      0.107089
O       9.79599     15.57567     15.05904        -0.312983      0.120729     -0.264688
O       9.75621      3.93016      6.79089         0.055233     -0.753070     -0.246407
O       9.62721     15.59961      6.70009         0.729793     -0.328176     -0.098393
O       9.72404      3.80563     10.81513         0.129802      1.310115      0.422329
O       9.72092     15.58794     10.87580        -0.118185     -0.433570      0.223520
O       9.77284      7.80398      2.47039        -0.088538     -0.236943      0.413140
O       9.67154      7.77366     15.04808         0.502853      0.050570     -0.305641
O       9.73567      7.78089      6.65941        -0.198449     -0.315648      0.483538
O       9.61924      7.82038     10.95744         0.706320     -0.880384     -0.596304
O       9.73423     11.70535      2.59194        -0.074288     -0.010463     -0.067822
O       9.79177     11.67667     15.01423        -0.133879     -0.161799     -0.033738
O       9.76237     11.62913      6.76519        -0.432474      1.418471     -0.319906
O       9.69655     11.63507     10.82921         0.199248      0.745806      0.439815
