  # total energy = -7880.87344843 
CRSYTAL
PRIMVEC
    15.6080000000000005    0.0000000000000000    0.0000000000000000
     0.0000000000000000   15.6080000000000005    0.0000000000000000
     0.0000000000000000    0.0000000000000000   16.6239999999999988
PRESSURE
-1.08746 -1.08934 -1.45513 -0.333751 0.368941 -0.059843
PRIMCOORD
320 1
Pb       4.00772      3.88117      4.11109         0.102690      0.168132      0.171804
Pb       4.08613      4.03515      0.14725        -0.109523     -0.116048     -0.390643
Pb       3.90370      0.03171      3.96850        -0.065732     -0.311676      0.202356
Pb       3.78062     15.57246     16.58635         0.337316      0.002132      0.112663
Pb       0.07901      3.83050      4.18041        -0.118443     -0.072513     -0.499509
Pb      15.53841      3.78892     16.59763         0.338273      0.021852      0.134817
Pb      15.55952     15.49662      4.00434         0.146421      0.468597     -0.004671
Pb      15.54848     15.57319     16.56770         0.109206     -0.052164      0.260607
Pb       3.65567      3.72825      8.31817         0.856004      0.446696     -0.359248
Pb       3.86220      0.04502      8.20381        -0.004804     -0.092465     -0.172312
Pb      15.47602      3.80112      8.29332         0.324154      0.041754     -0.152241
Pb       0.04206     15.56795      8.22397         0.088950      0.019469     -0.612931
Pb       3.81458      3.90241     12.47839         0.112457      0.035708     -0.355404
Pb       3.83397     15.44936     12.43374         0.344237      0.183252      0.157687
Pb       0.05252      3.92012     12.50635        -0.338922      0.150601     -0.248438
Pb       0.02756      0.25793     12.69601         0.007161     -0.184130     -0.327505
Pb       3.79765      7.89849      4.19149         0.102600     -0.016556     -0.441636
Pb       3.84668      7.74890     16.55212        -0.111359     -0.062858      0.323682
Pb       0.12218      7.89449      4.24495        -0.071177     -0.179356     -0.508951
Pb       0.01499      7.75190     16.58609        -0.250659     -0.214755     -0.659167
Pb       3.91391      7.67539      8.25701        -0.146720      0.107700      0.040463
Pb      15.29842      7.71909      8.63176         0.390328     -0.227316     -0.491008
Pb       3.93212      7.84458     12.41182         0.295348     -0.247336     -0.501539
Pb      15.53358      7.94687     12.59750        -0.083429     -0.416826     -0.014424
Pb       3.81276     11.70111      4.03429         0.359202     -0.345983      0.024384
Pb       3.85714     11.69708     16.51067         0.111205     -0.083468      0.431306
Pb      15.54807     11.66936      4.02947        -0.033371     -0.142070      0.136448
Pb      15.55052     11.81442     16.57143        -0.286636     -0.176019     -0.382276
Pb       3.82515     11.72405      8.11715         0.403765     -0.140145      0.675739
Pb      15.59852     11.61839      8.27139         0.200788      0.589240     -0.154804
Pb       3.98691     11.63150     12.31114        -0.331450      0.334171     -0.101239
Pb       0.19188     11.61820     12.38115        -0.047709     -0.115900      0.527779
Pb       7.80564      3.66466      4.19238        -0.277824      0.304975     -0.199794
Pb       7.80765      4.00115      0.02575        -0.364092      0.496484     -0.282294
Pb       7.71093     15.46057      4.05289         0.376468      0.288730      0.084192
Pb       7.85615      0.18241      0.08711        -0.223741     -0.526157     -0.319479
Pb       7.60496      3.91340      8.39248         0.423579     -0.437458     -0.268422
Pb       7.89412     15.57865      8.27895        -0.145775      0.114805     -0.264402
Pb       7.72154      3.71213     12.42942         0.199138     -0.178842     -0.475169
Pb       7.65243     15.54531     12.53219         0.416935      0.205395     -0.689461
Pb       7.75389      7.84137      4.17934         0.064877      0.401140     -0.240877
Pb       7.67855      7.91288     16.58280         0.404403     -0.396476     -0.071588
Pb       7.83833      7.72620      8.21336         0.028988      0.026067      0.272723
Pb       7.76789      7.62701     12.43530        -0.219527      0.285774     -0.687394
Pb       7.95117     11.74311      4.27823        -0.391900     -0.404965     -0.638857
Pb       7.61316     11.75066     16.58121         0.492672      0.211154      0.263395
Pb       7.69482     11.75582      8.17248         0.392261     -0.113649      0.272773
Pb       7.72932     11.51453     12.39427        -0.350104      0.876107     -0.221025
Pb      11.87767      3.82634      4.39239        -0.250194     -0.091578     -0.923839
Pb      11.79343      4.07937      0.20590        -0.291576     -0.147537     -0.642736
Pb      11.56714     15.43420      4.16871        -0.077205      0.301035     -0.304914
Pb      11.57996     15.50266      0.02250        -0.053525      0.102898     -0.478994
Pb      11.73784      4.14866      8.48169         0.229180     -0.449061     -0.266948
Pb      11.65307      0.17300      8.32411         0.106499     -0.337419     -0.404984
Pb      11.80989      3.82193     12.62953        -0.032566      0.037501     -1.025821
Pb      11.69327     15.60300     12.43566        -0.383737      0.117417      0.015005
Pb      11.77577      7.65225      4.16156        -0.208366      0.500912     -0.173312
Pb      11.50096      7.81196      0.02341         0.213900     -0.227889     -0.288397
Pb      11.59728      7.87856      8.32356         0.136476     -0.185975      0.231875
Pb      11.43804      8.00680     12.68297         0.955570     -0.924643     -0.876450
Pb      11.78396     11.30093      4.24623        -0.203017      0.537494     -0.020296
Pb      11.72294     11.73393     16.52166        -0.443583      0.356704     -0.434285
Pb      11.95901     11.96212      8.53327        -0.508571     -0.139422     -0.353684
Pb      11.55970     11.89257     12.38338         0.668720     -0.739307      0.878690
Ti       1.93904      1.96802      2.11828        -0.872351     -0.877065     -0.162846
Ti       1.96222      1.92206     14.82039         0.495795     -0.120136     -0.306829
Ti       1.88229     13.62905      2.12198         0.693443      0.475974     -0.305293
Ti       1.96643     13.53107     14.75313        -0.350444      1.130348     -1.559293
Ti      13.55785      1.90656      2.08545         0.646412     -0.813011      1.430536
Ti      13.49475      1.93469     14.75209        -0.656240     -0.433462     -0.278462
Ti      13.53551     13.57275      2.17269         0.417084      0.846338     -0.395200
Ti      13.62329     13.68624     14.57965        -0.521993     -0.465120      0.022327
Ti       1.95490      2.02335      6.12388        -0.155693     -1.803403      0.738824
Ti       1.96907     13.64733      6.31345        -0.671667      0.448868      0.492489
Ti      13.66852      1.88472      6.25070         0.425704     -0.214579     -0.303205
Ti      13.64976     13.66969      6.28674         0.191073     -0.481428     -0.414688
Ti       1.94643      1.90312     10.52113         0.073147      0.576258      0.680911
Ti       1.87576     13.71664     10.53339         1.849942     -1.167138     -0.433147
Ti      13.67646      1.82069     10.51764        -0.196908      1.217183      0.524481
Ti      13.84450     13.61738     10.63842        -1.036837      0.300434     -0.630978
Ti       1.93743      5.77456      2.22995         0.479175      0.515582     -0.487404
Ti       1.99264      5.74474     14.80439        -0.573611     -0.013403     -0.400033
Ti      13.68530      5.81293      2.16518         0.107195      0.210838      0.307857
Ti      13.66561      5.81327     14.63567         0.244186      0.941785      0.435312
Ti       1.97983      5.86355      6.31356         0.285154     -0.075840      0.482516
Ti      13.77723      5.75131      6.35266         0.139793      0.351798      0.124119
Ti       1.99726      5.80101     10.37861         0.296312      0.237129     -0.163523
Ti      13.71664      5.78011     10.60536        -1.052093     -0.242133      0.035855
Ti       1.87402      9.67969      2.06037         1.045045      0.198116      0.961246
Ti       1.93530      9.71743     14.66613        -0.685183     -0.396795     -0.013323
Ti      13.64572      9.64240      2.00343        -0.380746     -0.039758      0.769157
Ti      13.57269      9.79371     14.54192         1.172762     -0.265859      0.649838
Ti       1.90738      9.76072      6.34695         1.195927     -0.465900     -0.769809
Ti      13.65176      9.67921      6.50037        -0.378825      0.430190     -1.255292
Ti       1.96377      9.62821     10.46519         0.810297      0.333178      0.100770
Ti      13.60113      9.73776     10.54221        -0.600118     -0.065846      0.436438
Ti       5.82930      1.88436      2.14976         0.159877     -0.011759      0.918830
Ti       5.79886      1.99238     14.73646         0.562588     -0.138056     -0.247446
Ti       5.74385     13.66869      2.03590         1.222807     -0.352125      1.458860
Ti       5.81970     13.69671     14.59798        -0.026086      0.431830      0.442740
Ti       5.83362      1.95319      6.37538         0.033105      0.168114     -0.174952
Ti       5.82407     13.72885      6.26277        -0.096855     -0.392814      0.667217
Ti       5.82023      1.85473     10.48450         0.732713      0.697892     -0.479911
Ti       5.86194     13.69406     10.35794        -0.012573     -0.643904      1.641761
Ti       5.87076      5.89246      2.32136         0.136861     -0.285249     -0.611042
Ti       5.85935      5.93590     14.51099         0.283438     -1.154289      1.076096
Ti       5.90557      5.82165      6.39461        -0.462357     -1.282039     -1.212238
Ti       5.90329      5.74320     10.38639        -0.766533      0.985416      1.400049
Ti       5.76094      9.79765      2.11150         0.574013     -0.035409      1.030551
Ti       5.78433      9.79627     14.65290         0.164360     -0.135301     -0.525675
Ti       5.80587      9.78477      6.33904         0.150264      0.365941     -0.964872
Ti       5.86558      9.71115     10.36357        -0.445710     -0.224763      0.633544
Ti       9.71083      1.88572      2.24339         0.344950     -0.068769      2.290962
Ti       9.61461      1.97353     14.54872         1.216883     -0.856902     -0.349418
Ti       9.68139     13.55580      2.13838        -0.409940      0.299729      0.743330
Ti       9.66975     13.65363     14.59234         0.745934      0.293251      0.301563
Ti       9.70967      1.94500      6.35819        -0.408809     -0.996535     -0.801909
Ti       9.75630     13.56347      6.37473         0.640349      0.437767     -0.905447
Ti       9.81502      2.01076     10.41060        -0.938416     -0.461774      1.207428
Ti       9.78784     13.65290     10.47711        -0.897632      0.537304     -0.413840
Ti       9.71053      5.79556      2.29108        -0.405739      0.042709      0.144876
Ti       9.77708      5.77882     14.50947        -0.402749      0.547613      1.154377
Ti       9.82539      5.71379      6.32263        -0.491752      0.511081      1.275861
Ti       9.81312      5.84646     10.44769         0.194714      0.201147     -0.022483
Ti       9.72481      9.73239      2.22247        -0.714484     -0.211592      0.539570
Ti       9.68419      9.76547     14.64632        -0.020708     -0.060579      0.965015
Ti       9.71922      9.69614      6.43003         0.075104      0.209935     -0.683428
Ti       9.69772      9.81263     10.45725         0.429759     -0.859213     -1.377291
O       1.93821      1.89063      0.32237         0.109797     -0.124242     -0.342231
O       1.95245      2.04234     12.97905        -0.088428     -0.283482     -0.490937
O       1.92484     13.65651      0.31280        -0.355339     -0.514308      0.288661
O       2.06377     13.53173     12.95631        -0.061262      0.314178     -0.337207
O      13.53406      1.84814      0.28679        -0.198052      0.022533      0.043289
O      13.59101      1.81242     12.91650         0.288562      0.417751      0.581962
O      13.71628     13.61260      0.32538        -0.050858     -0.479918      0.752742
O      13.41160     13.57090     12.77412         0.793724      0.458552      0.576162
O       1.90943      1.96694      4.34545         0.182019      0.056215     -0.025459
O       2.03268     13.57991      4.57582        -0.148068     -0.007855     -1.500712
O      13.70222      1.93822      4.43175         0.002559      0.521889      0.952830
O      13.59031     13.56522      4.46868         0.065796      0.054213      0.380233
O       1.94771      1.80204      8.79341         0.140831      0.040019     -0.770087
O       1.73433     13.59525      8.74100         0.206901      0.378410      0.629034
O      13.75966      1.91780      8.75534        -0.116200     -0.105273     -0.535186
O      13.81223     13.61765      8.79176         0.117665     -0.031480      0.556284
O       2.10916      5.88249      0.40960        -0.123848     -0.233043      0.289275
O       1.88307      5.59627     13.02763         0.320606     -0.060548     -0.621263
O      13.48001      5.85370      0.36213         0.284071     -0.304519      0.639220
O      13.77550      5.74492     12.83737         0.069967     -0.019976     -0.105524
O       1.92019      5.77008      4.51063        -0.132792     -0.123727     -0.267320
O      13.83477      5.66196      4.55571        -0.495714      0.194364     -0.190478
O       2.05839      5.97650      8.56925        -0.206159     -0.319701      1.138034
O      13.66401      5.71901      8.73016         0.322870     -0.197867      0.368825
O       1.98409      9.56874      0.29502        -0.125010      0.270530     -0.204000
O       2.05056      9.81980     12.88343        -0.398013     -0.677087     -0.065169
O      13.57316      9.63688      0.24189         0.232311      0.270247      0.432568
O      13.69744      9.62896     12.74061        -0.285645     -0.138200      0.010189
O       1.90770      9.72636      4.49124        -0.228769      0.191956      0.309807
O      13.61524      9.70628      4.62630         0.510795     -0.341689      1.089323
O       2.04281      9.47942      8.68708        -0.280627      0.585945      0.337376
O      13.63837      9.56693      8.70343         0.476635      0.581624     -0.242604
O       5.91713      1.88477      0.40127         0.054206      0.273441     -1.181832
O       6.05543      1.93192     12.94504        -0.373582      0.150260     -0.680925
O       5.87518     13.71449      0.29889        -0.081258     -0.422888     -0.759895
O       5.76521     13.64742     12.80225         0.247674      0.113138      0.442059
O       5.87553      1.95771      4.57723        -0.227367     -0.041945     -0.083818
O       5.74903     13.72266      4.52365        -0.020051     -0.306066     -0.648265
O       5.74239      1.94794      8.68459         0.216110     -0.271318     -0.083488
O       5.87127     13.66632      8.61052         0.106467      0.004538     -0.131551
O       5.85176      5.70076      0.43202         0.135287      0.480488      0.710427
O       5.88648      5.89153     12.74047         0.207845     -0.209813      0.170299
O       6.04564      5.70907      4.53710        -0.623395      0.106047      0.549772
O       5.80562      5.84860      8.63929         0.281022     -0.363029     -0.877503
O       5.81744      9.63196      0.31635         0.065206      0.108783     -0.299056
O       5.84465      9.82712     12.85276         0.159420     -0.211981      0.592906
O       5.90706      9.84176      4.52676        -0.403223     -0.586793      0.950090
O       5.77108      9.76825      8.60862         0.191851     -0.051638     -0.617431
O       9.73034      1.86117      0.53653        -0.063936      0.442523     -2.333036
O       9.65942      1.80858     12.75870        -0.090605      0.152840      0.790045
O       9.66352     13.40832      0.36284         0.084357      0.079328      0.004951
O       9.89111     13.76739     12.80863        -0.146007     -0.458421     -0.076407
O       9.56818      1.66908      4.49204         0.683046      0.673491      1.837530
O       9.87617     13.66693      4.46293        -0.474273     -0.073013      1.500568
O       9.80303      1.90882      8.62182         0.209873      0.117234     -0.343640
O       9.73946     13.40024      8.64010         0.111095      0.380031      0.738053
O       9.80482      5.82699      0.48521         0.296439     -0.441851      0.025169
O       9.68319      6.08598     12.77768         0.476002     -0.156210     -0.808284
O       9.75658      5.88461      4.59463         0.006229     -0.042207     -0.897132
O       9.79921      5.70863      8.61676         0.617565      0.030529      0.559553
O       9.69561      9.76328      0.43854         0.234401     -0.005810     -0.381845
O       9.75610      9.46372     12.88138        -0.837328      0.957177     -0.554248
O       9.72999      9.58375      4.56308        -0.011258      0.409051      0.889668
O       9.67934      9.84902      8.62772         0.178423     -0.070961      0.674690
O       3.85568      1.77404      2.35223         0.304229      0.279522      0.280221
O       4.02369      1.74928     15.01102        -1.765818      0.329912     -0.097989
O       3.93134     13.86751      2.34311        -1.640234     -0.786524      0.286428
O       3.82795     13.57261     14.99097         1.362660      0.151244      0.167399
O      15.59709      1.99384      2.28676        -0.688936      0.098037      0.285378
O      15.59775      1.82289     15.02332        -0.349209      0.517018     -0.342367
O       0.04769     13.53642      2.45097        -0.651143     -0.297590      0.201972
O      15.58754     13.60531     14.86720        -0.888371     -0.032312      0.129374
O       3.87429      2.00270      6.54291         0.148330     -0.548111      0.291378
O       3.87044     13.54534      6.64364         0.433437      0.517770      0.154182
O       0.08536      1.91820      6.48774        -1.003834     -0.314398      0.480479
O      15.57775     13.77494      6.52644        -0.183143     -0.583691      0.194048
O       4.02386      1.91568     10.83735        -1.804976      0.102223      0.449531
O       3.95941     13.75247     10.73965        -0.856742     -0.320424     -0.164692
O      15.60279      1.96331     10.85069         1.029520     -0.155795      0.312625
O       0.11811     13.63919     11.08744        -1.240933      0.217140     -0.411225
O       3.90042      5.90379      2.60626         0.289207     -0.503818     -0.095175
O       3.95092      5.90211     14.94329         0.489041      0.050673     -0.129799
O       0.03422      5.75919      2.43906        -0.596119     -0.112062     -0.242572
O       0.02579      5.78188     15.11947         0.205267     -1.084802      0.032472
O       3.90250      5.55044      6.67254         0.171198      0.905966     -0.594105
O       0.07706      5.71573      6.64707        -0.112644      0.334044      0.157470
O       3.97646      5.78127     10.81750        -0.270293      0.011243     -0.005800
O       0.06573      5.65258     10.69491         0.755277      0.342579      0.117039
O       3.87858      9.60637      2.50523        -0.150987      0.087953     -0.152337
O       3.87537      9.69128     14.91503         0.334933     -0.130182      0.161280
O       0.00095      9.78244      2.32377        -0.885817     -0.106634      0.230543
O      15.54227      9.73844     14.79978         0.946148     -0.076504      0.369064
O       3.86839      9.95658      6.50278         0.582376     -0.696709      0.279356
O       0.13422      9.76208      6.63406        -2.392756     -0.550407      0.363412
O       3.98490      9.73867     10.79928        -0.935691     -0.322901      0.105124
O       0.03854      9.65200     10.81737         0.611842     -0.258799     -0.223839
O       7.73737      1.75650      2.49198         0.434689      0.835727     -0.080608
O       7.76083      2.01019     15.01894         0.854840     -0.069286      0.354884
O       7.69119     13.60347      2.41394         0.994494     -0.775202      0.259492
O       7.82652     13.59120     14.85557        -0.874345     -0.581488     -0.090545
O       7.79474      1.90643      6.70433         0.620620     -0.130046      0.068840
O       7.79581     13.66235      6.60219         0.109586      0.241579     -0.115839
O       7.87365      1.84965     10.76103        -0.097800      0.151272     -0.103470
O       7.87179     13.70188     10.80961        -0.780243     -0.372349     -0.244840
O       7.78541      5.61178      2.42171         0.405086      0.586368      0.204783
O       7.88265      5.82658     14.82842        -0.876462     -0.150635      0.487772
O       7.88556      5.71348      6.75066        -0.500978      0.711073     -0.244368
O       7.87843      5.88362     10.60965        -0.309494     -0.039473      0.466648
O       7.66145      9.84426      2.52735         1.354659     -0.264041     -0.313273
O       7.78109      9.83944     15.00769         0.345368     -0.214591     -0.311859
O       7.73970      9.56790      6.66892         0.205245      0.340717     -0.223574
O       7.81233      9.83125     10.80394        -0.274825     -0.561521     -0.148467
O      11.66325      1.69900      2.64340         0.255444      0.646006     -0.813026
O      11.56271      1.93362     14.85529         0.905187     -0.047353      0.222107
O      11.71838     13.78870      2.20712        -0.328002     -0.389330      0.371461
O      11.61361     13.67450     15.05765         0.768037     -0.293486      0.007945
O      11.83043      1.97326      6.59313        -1.214008     -0.195435     -0.161913
O      11.70900     13.54406      6.73438         0.286928      0.039243     -0.165830
O      11.68996      1.82687     10.77685         0.956285      0.296330     -0.039242
O      11.78803     13.42305     10.70150        -0.058076      0.489563     -0.471423
O      11.76902      5.86208      2.65468        -0.404185     -0.499498     -0.408570
O      11.73430      5.80547     14.86376        -0.346481      0.167972      0.019259
O      11.79548      5.70128      6.57765        -0.576763      0.142782     -0.050812
O      11.73741      5.73994     10.73666         0.214308      0.030477      0.067523
O      11.67769      9.61397      2.47389         0.668947      0.078382     -0.052405
O      11.75474      9.58703     14.86120        -0.688115     -0.014771      0.064935
O      11.70355      9.71397      6.67619         0.507025      0.088001     -0.084028
O      11.69350      9.84887     10.72704         0.638790     -0.423017      0.183133
O       1.96110      3.85044      2.34357         0.434836      0.740011      0.376629
O       2.17225      3.76412     15.06879        -0.537759      0.918374      0.283859
O       1.81701     15.56805      2.35566         0.122024     -0.428519      0.466352
O       1.93266     15.54004     15.01993        -0.019388      0.136644     -0.261847
O      13.52153      3.81379      2.25168        -0.099967      0.456402      0.323488
O      13.57725      3.84016     15.01246         0.351638     -0.204847      0.030454
O      13.80828     15.56382      2.52351        -0.497260     -0.491620     -0.718726
O      13.50143     15.53508     14.96926         0.638276      0.278154     -0.252756
O       1.93221      3.77342      6.58548        -0.177059      1.208535      0.253970
O       1.98262     15.56080      6.68926         0.245635      0.300074     -0.233335
O      13.77056      3.85216      6.68429        -0.222344     -0.417461     -0.272217
O      13.61947     15.57785      6.59364         0.048469      0.074490      0.024845
O       2.21198      3.88285     10.50510        -0.767951     -0.279556      1.057827
O       1.97303      0.01214     10.87459        -0.159734     -0.343063      0.165851
O      13.70175      3.82345     10.94723        -0.372740     -0.252509     -0.272683
O      13.73680     15.56931     10.91300         0.055442     -0.678125     -0.284520
O       1.91242      7.79954      2.48513        -0.305098     -0.386272      0.416173
O       1.91860      7.67379     14.97828         0.026588      1.222743     -0.220630
O      13.70579      7.73705      2.48761         0.147402      0.504638     -0.111086
O      13.88927      7.65254     14.90520        -0.751217      0.923943     -0.396765
O       2.10021      7.76978      6.36898         0.086802     -0.185223      0.322578
O      13.72699      7.67953      6.81302         0.003353      0.713194     -0.691095
O       2.17503      7.70491     10.90657        -1.046573      0.253260     -0.351019
O      13.77869      7.70432     10.68374         0.157814      0.262625      0.342177
O       2.02901     11.64871      2.35896         0.049968      0.311125      0.047444
O       1.93284     11.62755     15.05208        -0.199927     -0.379747      0.129791
O      13.61299     11.62170      2.49526        -0.116849     -0.118525     -0.445695
O      13.56790     11.69701     14.81717        -0.008571     -0.320422      0.476259
O       1.90200     11.70644      6.69129        -0.287821     -0.048159      0.151146
O      13.74943     11.66881      6.67123         0.033055     -0.316534      0.311072
O       1.98264     11.63418     10.85087        -0.065968      0.127889     -0.638953
O      13.81915     11.62039     10.71811         0.211377      0.330457      0.017370
O       5.75661      3.74551      2.52439         0.025212      0.841408     -0.176126
O       5.75102      3.91126     14.95727         0.405743      0.336294     -0.082631
O       5.88353     15.57273      2.49095        -0.334469     -0.067343     -0.017618
O       5.87677     15.53003     14.91622         0.256405     -0.105621     -0.165531
O       5.94080      3.85578      6.72072        -0.034499     -0.135716     -0.148209
O       5.85351      0.00725      6.59594        -0.354841     -0.101515      0.362494
O       6.01115      3.86274     10.70372        -0.090294      0.138720      0.214090
O       5.82928      0.00933     10.72773         0.562661     -1.052448      0.349942
O       5.94698      7.74868      2.51379        -0.039778     -0.146456     -0.126717
O       6.02721      7.79965     14.81289        -0.472402      0.094902      0.259143
O       5.75491      7.67279      6.59635         0.087150      0.967226     -0.119799
O       5.85043      7.78978     10.62237         0.238259      0.000560      0.533402
O       5.62871     11.66041      2.36002        -0.027917      0.715916     -0.392776
O       5.79263     11.68857     15.02801        -0.004033      0.049779     -0.248946
O       5.91326     11.73867      6.55248         0.031873     -0.488655      0.282346
O       5.78095     11.66668     10.76028         0.845960      0.849403     -0.247442
O       9.68744      3.82273      2.60946         0.748545      0.059659     -0.253412
O       9.77767      3.90351     14.59909        -0.259298     -0.124601      0.592582
O       9.60491     15.47530      2.39832         0.425139     -0.348416     -0.104101
O       9.67784     15.58721     14.97068        -0.151996      0.120267      0.208698
O       9.77814      3.79388      6.49430         0.200465      0.343621     -0.196810
O       9.81245     15.51876      6.75496         0.111274      0.488169     -0.007522
O       9.87468      3.86366     10.84089        -0.410667      0.125275     -0.206202
O       9.91398     15.50879     10.68486        -0.039476     -0.046003     -0.519082
O       9.70369      7.77696      2.54555        -0.256618     -0.490716     -0.193900
O       9.80829      7.81265     15.02625        -0.379348     -0.211104     -0.069708
O       9.79378      7.80342      6.76489        -0.050480     -0.964660     -0.191632
O       9.87411      7.83009     10.61167        -0.239722     -0.256654      0.208454
O       9.85774     11.62995      2.71979        -0.381893      0.173761     -0.793060
O       9.92656     11.63778     14.75078        -0.405214     -0.134765      0.201073
O       9.55024     11.66579      6.45406         0.148426     -0.309297      0.016436
O       9.74754     11.63387     10.96015        -0.367297      0.689765     -0.212783
