  # total energy = -7886.89853599 
CRSYTAL
PRIMVEC
    15.6080000000000005    0.0000000000000000    0.0000000000000000
     0.0000000000000000   15.6080000000000005    0.0000000000000000
     0.0000000000000000    0.0000000000000000   16.6239999999999988
PRESSURE
-1.09333 -1.00349 -0.369365 -0.036323 -0.015193 -0.002386
PRIMCOORD
320 1
Pb       3.90151      3.89701      4.13080        -0.226512      0.097289      0.176132
Pb       3.91003      3.91407     16.62282        -0.063450     -0.057078     -0.225868
Pb       3.88194     15.59132      4.11339         0.112045     -0.123969      0.073339
Pb       3.86534     15.58754     16.59615        -0.053213     -0.077948     -0.035888
Pb      15.60099      3.87488      4.11636         0.281973      0.159281      0.490721
Pb      15.57256      3.87474     16.60428         0.001436      0.070490     -0.141698
Pb      15.57391     15.59105      4.09627         0.106870     -0.000007      0.726247
Pb      15.57657     15.58023     16.60158         0.046727      0.148549     -0.394264
Pb       3.85834      3.88097      8.29198        -0.262229     -0.251871      0.045213
Pb       3.88546     15.60123      8.29753        -0.089566     -0.070384     -0.208734
Pb      15.58165      3.87383      8.27852         0.234335     -0.202197     -0.047180
Pb       0.00578     15.58819      8.26956        -0.032400     -0.222752      0.015636
Pb       3.88895      3.89184     12.42840         0.004585      0.066631     -0.152671
Pb       3.87360     15.56939     12.41169         0.188538     -0.223560      0.310816
Pb      15.58229      3.86544     12.44371         0.414521     -0.357607     -0.422810
Pb      15.57623      0.02378     12.45900         0.075705      0.068757     -0.061523
Pb       3.87669      7.79365      4.15879        -0.432332     -0.342448     -0.004117
Pb       3.86870      7.77714     16.61021         0.180874     -0.028897     -0.458657
Pb       0.01562      7.79563      4.14028        -0.040477     -0.008241     -0.224190
Pb      15.59792      7.78042     16.60498        -0.187938      0.047470      0.163903
Pb       3.91665      7.77193      8.24353        -0.181088      0.173359      0.203325
Pb      15.56341      7.78575      8.31376         0.188565     -0.120517     -0.051446
Pb       3.88657      7.79755     12.44635         0.120168     -0.059955     -0.140618
Pb      15.59780      7.79677     12.45760        -0.234420      0.276907      0.010510
Pb       3.87623     11.68246      4.12140         0.121287      0.326396     -0.138770
Pb       3.88891     11.66680     16.57321        -0.141742      0.119228     -0.189132
Pb      15.58774     11.67997      4.12336         0.231524     -0.182005     -0.097457
Pb      15.58362     11.70507     16.58452         0.084381     -0.359532      0.132827
Pb       3.87138     11.67961      8.25768        -0.301001     -0.071109      0.065749
Pb      15.58318     11.67266      8.29115         0.137239      0.452026      0.254752
Pb       3.91060     11.68609     12.42401        -0.255742      0.054167     -0.143622
Pb       0.01100     11.66450     12.41679        -0.070128     -0.028449     -0.208417
Pb       7.80021      3.86798      4.13742        -0.072139      0.067391      0.027709
Pb       7.80098      3.90010     16.62319         0.086068      0.289351     -0.186663
Pb       7.79467     15.56787      4.10399        -0.303344      0.154438      0.208481
Pb       7.80424      0.01262     16.61083         0.149425     -0.192134      0.144087
Pb       7.75210      3.89760      8.28502         0.361637      0.053186      0.144468
Pb       7.79062     15.57725      8.29693         0.018639      0.011121     -0.203352
Pb       7.77363      3.87352     12.43697        -0.416566      0.077722     -0.463363
Pb       7.77292     15.58600     12.45097        -0.300757     -0.080575      0.008121
Pb       7.77622      7.79482      4.13444         0.005574      0.021673     -0.010306
Pb       7.80797      7.81766     16.60245        -0.399524     -0.129528     -0.292459
Pb       7.78877      7.78143      8.27928        -0.188136     -0.049714     -0.184429
Pb       7.81539      7.75565     12.40665        -0.856395     -0.184138      0.578838
Pb       7.82229     11.68505      4.15896        -0.600486     -0.095159     -0.283523
Pb       7.77451     11.68320     16.61162        -0.088750     -0.287651     -0.178683
Pb       7.75759     11.69825      8.25356         0.203764     -0.036259      0.106981
Pb       7.77434     11.65433     12.43164        -0.139283      0.160692      0.232738
Pb      11.69596      3.89843      4.14413        -0.202819     -0.162503      0.544634
Pb      11.70390      3.91762     16.61674        -0.168889     -0.241168     -0.547730
Pb      11.64962     15.57808      4.12221         0.028803      0.023639     -0.150523
Pb      11.66628     15.58189     16.61591         0.039413      0.156691     -0.120778
Pb      11.71335      3.90094      8.28339        -0.572873      0.320037      0.233269
Pb      11.68682      0.00585      8.26917        -0.138968     -0.361558      0.356148
Pb      11.72249      3.87491     12.45770        -0.334650     -0.247450      0.022723
Pb      11.72638     15.58128     12.43921        -0.065109     -0.129785     -0.135790
Pb      11.68623      7.72839      4.10813         0.317273      0.557165      0.048300
Pb      11.63645      7.78266     16.59843         0.110084     -0.029068      0.107127
Pb      11.66866      7.81404      8.26164         0.172777     -0.021868     -0.101172
Pb      11.66549      7.78613     12.46577         0.300981      0.405273      0.044084
Pb      11.66310     11.64048      4.15031         0.108884     -0.309893     -0.511570
Pb      11.70860     11.70356     16.58748        -0.330442     -0.227782     -0.041791
Pb      11.74491     11.71953      8.29380        -0.080119     -0.166424      0.294901
Pb      11.67935     11.71124     12.44202         0.074671     -0.045048     -0.750778
Ti       1.93259      1.97783      2.20549         0.194707     -0.338769     -0.104857
Ti       1.91654      1.98060     14.70201         0.359578     -0.960300     -0.973230
Ti       1.87589     13.68163      2.21240         1.345498     -0.364308     -0.247402
Ti       1.86752     13.63576     14.72474         0.641048      0.160047     -0.081022
Ti      13.62764      1.93412      2.24706         0.197580     -0.707361      0.446023
Ti      13.66771      1.90344     14.63956        -0.876311     -0.191370      0.342110
Ti      13.67782     13.62184      2.19472        -0.938735      0.132546      0.699577
Ti      13.61097     13.59532     14.65803         0.304817      0.681683      0.381286
Ti       1.91052      1.85988      6.36048         0.023976      0.748758     -0.193357
Ti       1.96306     13.63407      6.40295        -0.444597     -0.284363     -0.078240
Ti      13.56200      1.97143      6.40322         1.103243     -0.313642      0.070390
Ti      13.59205     13.66575      6.37680         0.824959     -0.106782      0.574860
Ti       1.98701      1.84736     10.54673        -0.846802      1.440640     -0.802456
Ti       1.88517     13.61023     10.54106         1.025755     -0.198968     -0.720011
Ti      13.58486      1.94278     10.46455         0.945779     -0.379545      0.939028
Ti      13.64815     13.65890     10.54998        -0.265103     -0.365600     -0.570669
Ti       1.88639      5.85400      2.18126         0.332519      0.165951      0.877973
Ti       1.93014      5.84119     14.64276         0.658654      0.241998     -0.174201
Ti      13.57128      5.75303      2.28762         0.971576      1.607164     -0.456726
Ti      13.66081      5.83328     14.69056         0.063847      0.231882      0.289485
Ti       1.93690      5.80524      6.43687        -0.202911     -0.045819     -0.955283
Ti      13.65927      5.84064      6.45222        -0.351133      0.204681     -1.133425
Ti       1.81068      5.89524     10.54691         1.098437     -0.940502     -0.191015
Ti      13.56582      5.84659     10.62621         0.368888      0.370519     -1.566131
Ti       1.97130      9.75729      2.21289        -0.865434     -0.342175     -0.133143
Ti       1.87659      9.73077     14.71817         0.874840     -0.053402      0.044329
Ti      13.62065      9.75410      2.13830         0.521129     -0.954385     -0.228511
Ti      13.64614      9.74760     14.73647        -0.229596     -0.752513     -0.185303
Ti       1.91539      9.71957      6.38583         0.338708     -0.171908      0.262532
Ti      13.69653      9.70461      6.38112        -1.002320      0.031971      0.502076
Ti       1.91162      9.71540     10.52243         0.663276      0.671775     -0.688244
Ti      13.64234      9.74701     10.45870        -0.099692      0.272759      0.883931
Ti       5.84008      1.94288      2.22948        -0.212837     -0.162875     -0.173044
Ti       5.80956      1.87534     14.74984        -0.528957      0.358646     -1.183135
Ti       5.82967     13.63463      2.22545        -0.563875     -0.298867      0.457113
Ti       5.83920     13.62349     14.66498        -0.321835      0.021892     -0.818966
Ti       5.82177      1.95967      6.38047         0.130442     -0.979891     -0.020930
Ti       5.86377     13.64643      6.39020        -0.529854      0.448551     -1.868892
Ti       5.84174      1.87976     10.50269        -0.545370      0.735031      0.080787
Ti       5.84945     13.61853     10.43798        -0.986929      0.161035      1.607441
Ti       5.75823      5.85677      2.20485         0.156858     -0.686134      0.377351
Ti       5.84364      5.79336     14.66540        -0.673122      1.034415      0.695885
Ti       5.83726      5.76535      6.38118        -0.262687      0.877998     -0.641004
Ti       5.75647      5.85015     10.48599         0.318145     -0.583440      0.304790
Ti       5.81285      9.68779      2.16107         0.226311      0.806246      1.110733
Ti       5.82000      9.76500     14.65236        -0.217351     -1.046046      0.106104
Ti       5.83996      9.74423      6.32784        -0.365101     -0.340458      0.591894
Ti       5.86620      9.76537     10.52920        -1.134999     -0.682427      0.004165
Ti       9.76418      1.96324      2.23377        -0.501354     -0.935930      0.218292
Ti       9.70717      1.88473     14.68510         1.115084      0.410520      0.538111
Ti       9.72637     13.60340      2.20899         0.303131      0.460109      0.568456
Ti       9.71132     13.60057     14.68664         0.322760      0.390056      0.430425
Ti       9.70306      1.90167      6.42700        -0.297599      0.882926     -0.787992
Ti       9.70790     13.62267      6.32598        -0.054597      0.123918      0.905680
Ti       9.68787      1.92358     10.56499         0.602431     -0.092454      0.039688
Ti       9.64975     13.65738     10.56253         1.410433     -0.396838     -0.357692
Ti       9.67875      5.79845      2.22769         0.257077      0.496650     -0.963529
Ti       9.74624      5.84735     14.69220        -0.069053     -0.283794      0.276908
Ti       9.70878      5.88937      6.35681         0.641604     -0.941815     -0.176002
Ti       9.73756      5.88235     10.52786        -0.922751     -0.788573      0.367135
Ti       9.69172      9.67681      2.22962         0.589004      0.470940      0.143470
Ti       9.72141      9.75448     14.65236        -0.329762     -0.449690      0.293456
Ti       9.70942      9.74436      6.42160         0.806468     -0.336337     -0.447885
Ti       9.68726      9.69106     10.59123         0.741123      1.245729     -0.385755
O       1.89649      2.02974      0.40696         0.075563     -0.222821      0.180915
O       1.85410      1.84416     12.87971         0.333782      0.399475      0.711841
O       1.99047     13.67642      0.41057        -0.338284     -0.217813      0.381126
O       1.94340     13.65430     12.96961        -0.092790     -0.169756     -0.866398
O      13.60128      1.89967      0.49445         0.173992      0.064058     -0.150277
O      13.55700      1.89597     12.86577         0.260046      0.295883      0.134542
O      13.63263     13.70159      0.44139         0.252880     -0.209907     -0.333180
O      13.70458     13.64464     12.91484        -0.339254     -0.333732     -0.702024
O       2.01283      1.95321      4.57910        -0.361415     -0.326317      0.041908
O       1.79555     13.58499      4.61078         0.461015     -0.004885      0.209968
O      13.61644      2.06184      4.63423        -0.061337     -0.187904     -0.005298
O      13.71226     13.70123      4.61242        -0.219003     -0.537838      0.127187
O       1.99296      1.90607      8.70646        -0.147813      0.033050      0.657828
O       1.95490     13.61693      8.76416         0.168478      0.206253     -0.053873
O      13.69003      1.97012      8.69944        -0.258368     -0.208260     -0.055165
O      13.60602     13.59130      8.77249        -0.026016      0.495296     -0.257152
O       1.90245      5.78085      0.41859        -0.053150     -0.111668     -0.204721
O       1.98855      5.87340     12.85464        -0.318001      0.036711      0.288639
O      13.72127      5.81635      0.51991        -0.222848     -0.353475     -0.421825
O      13.61683      5.89303     12.91307        -0.088258     -0.286153     -0.485811
O       1.96498      5.90268      4.65619        -0.074495     -0.431899     -0.275606
O      13.60647      5.83299      4.63499        -0.092169     -0.064370     -0.152533
O       1.80548      5.90683      8.73378         0.197310     -0.365235      0.469190
O      13.62144      5.81627      8.82176        -0.018230      0.091589      0.275496
O       2.03404      9.68785      0.43763        -0.416719      0.236801     -0.220518
O       1.98426      9.83307     12.94653        -0.411784     -0.302197     -0.231495
O      13.83191      9.77280      0.32223        -1.068597     -0.044196      0.902426
O      13.73331      9.77446     12.96210        -0.237935     -0.089687     -0.156350
O       1.94084      9.65035      4.60376        -0.204795      0.278654     -0.079324
O      13.54956      9.66116      4.63142         0.365635      0.440569     -0.222477
O       1.86902      9.75962      8.73468         0.266603     -0.520354      0.235688
O      13.69044      9.73132      8.70409        -0.284342     -0.035685     -0.184959
O       5.74923      1.86128      0.42642         0.671050      0.188449      0.365854
O       5.82825      1.93458     12.92587         0.196755     -0.174723      0.812196
O       5.73723     13.62219      0.43370         0.458285     -0.120529      0.126198
O       5.85040     13.70125     12.86295         0.174398     -0.237143      0.431683
O       5.89307      1.86871      4.62278        -0.190062      0.331479     -0.570127
O       5.90313     13.58427      4.53157        -0.087457      0.094680      0.882966
O       5.83371      1.89750      8.71051        -0.014987      0.064779      0.249036
O       5.92701     13.65765      8.69195        -0.024933     -0.222555     -0.489416
O       5.73249      5.84808      0.44293         0.218164     -0.174025     -0.081332
O       5.73134      5.81171     12.91248         0.403858     -0.016801     -0.335719
O       5.77345      5.76643      4.55880         0.437220      0.312810      0.911922
O       5.82441      5.70078      8.69060         0.157644      0.427841      0.255475
O       5.89585      9.79141      0.42326        -0.343171      0.004410     -0.335460
O       5.80197      9.78848     12.85895        -0.027534     -0.203848      0.272132
O       5.94270      9.66129      4.58261        -0.532004     -0.014416     -0.216729
O       5.81791      9.76603      8.75473         0.481439      0.024146     -0.243466
O       9.74572      1.73865      0.46370        -0.071754      0.687161      0.037418
O       9.75409      1.88606     12.90750        -0.082730      0.188729      0.022721
O       9.75444     13.65737      0.45367        -0.000359     -0.145076     -0.642748
O       9.74538     13.64761     12.93530         0.097083     -0.133823     -0.665893
O       9.75581      2.01202      4.63609        -0.057728     -0.024478      0.442075
O       9.70552     13.61947      4.56564         0.134306     -0.016104      0.138499
O       9.79823      1.88110      8.82104        -0.440169     -0.165321     -0.929936
O       9.69311     13.73037      8.78875        -0.071654     -0.257024     -0.049186
O       9.75502      5.83393      0.40465        -0.041956     -0.015020      0.577030
O       9.84710      5.84166     12.89799        -0.477976     -0.130823      0.528936
O       9.61876      5.80786      4.55055         0.689599      0.063269      0.393383
O       9.72786      5.86254      8.77464        -0.058587      0.347846      0.007004
O       9.78117      9.73715      0.46650        -0.355933      0.155673     -0.194221
O       9.65184      9.66871     12.86512         0.499895      0.371600      0.539233
O       9.69249      9.67949      4.64206         0.184215      0.394270     -0.440099
O       9.71160      9.71449      8.82095        -0.359219     -0.402141     -0.519207
O       3.93988      1.99938      2.54736        -0.337689     -0.457756     -0.079035
O       3.92268      1.89537     15.03164        -0.926566      0.373141     -0.004202
O       3.84035     13.60856      2.62119        -0.029222     -0.068074     -0.192470
O       4.00016     13.52223     14.88876        -1.197447     -0.132535      0.561073
O      15.56029      1.84764      2.56413         0.613739      0.825031     -0.194321
O       0.00100      1.92225     14.97799         0.040978     -0.075478      0.221100
O      15.58689     13.58647      2.60389         0.044951      0.258961     -0.601324
O      15.54306     13.72093     14.99436         0.549877     -0.664956      0.335925
O       3.93815      1.87875      6.64958        -0.484332      0.249875      0.298408
O       3.90939     13.65965      6.68146        -0.176103     -0.268476      0.115497
O      15.58547      1.77281      6.68598        -0.065649      1.009775     -0.185444
O       0.08847     13.62503      6.84707        -1.276770     -0.037511     -0.559997
O       3.85094      1.95249     10.81771         0.786903     -0.119064      0.216938
O       3.87507     13.64599     10.75397         0.786436     -0.127450      0.417662
O      15.56731      1.99868     10.89356         0.025068     -0.057209     -0.202659
O       0.05294     13.60619     10.81081        -0.921495      0.482050      0.468972
O       3.82059      5.79603      2.61156         0.678791      0.157835     -0.506183
O       3.86516      5.97614     15.01107        -0.152322     -0.720128      0.053295
O      15.59214      5.91590      2.61574        -0.021705     -0.593340     -0.162985
O       0.03592      5.87031     14.95256        -0.968026     -0.492074      0.174218
O       3.91589      5.81365      6.72165        -0.220347     -0.161888      0.090072
O      15.55034      5.74902      6.64221         0.024542      0.001120      0.476736
O       3.89874      5.90180     10.79513        -0.627824     -0.256761     -0.044332
O      15.51595      5.85627     10.85490         0.237978     -0.052212      0.304171
O       3.84484      9.72335      2.57403         1.041676     -0.157628     -0.052715
O       3.86615      9.69157     15.01426         0.244542      0.530957      0.004677
O      15.59122      9.71635      2.50441         0.084778     -0.017833      0.275901
O      15.58267      9.75551     15.06969         0.215574     -0.314192     -0.353639
O       3.82971      9.72409      6.69775         0.737754     -0.252804     -0.107455
O      15.60003      9.71115      6.74645        -0.303554      0.099829     -0.511682
O       3.88455      9.69473     10.79331         0.068947      0.250837      0.285035
O       0.01352      9.68331     10.79286        -0.582563      0.329603      0.503355
O       7.80296      1.90997      2.63538        -0.352832      0.074879     -0.640572
O       7.82297      1.88444     15.06076        -0.486627      0.113537     -0.080247
O       7.79455     13.68621      2.49718        -0.263099     -0.228896     -0.170935
O       7.83635     13.59007     14.94829        -0.324687      0.521212      0.522300
O       7.77254      1.93396      6.67797         0.268922      0.205750      0.442410
O       7.79082     13.70482      6.69628         0.609973     -0.911597      0.057587
O       7.73035      1.87890     10.89087         0.539053      0.075340     -0.113010
O       7.79145     13.56924     10.85613        -0.521858      0.490156     -0.027425
O       7.86499      5.85454      2.57475        -1.394004     -0.045380     -0.386949
O       7.76754      5.87888     15.06066         0.084935     -0.443912     -0.389796
O       7.83089      5.78665      6.71709        -0.914292      0.466782      0.014275
O       7.76597      5.85184     10.88016         0.344171     -0.314297      0.048398
O       7.74687      9.72168      2.53019         0.399880     -0.062755     -0.019040
O       7.78892      9.74321     15.03771         0.442903     -0.076719     -0.057950
O       7.78707      9.65068      6.60510        -0.532747      0.408607      0.779156
O       7.75004      9.73879     10.96234         0.078654     -0.250643     -0.585068
O      11.64989      1.99173      2.66496         0.901564     -0.119941     -0.485270
O      11.70757      2.00114     15.04983        -0.148334     -0.220324     -0.177889
O      11.69546     13.75136      2.51428         0.439767     -0.660781      0.179866
O      11.71238     13.63275     15.02220         0.079346     -0.186265     -0.030167
O      11.66760      1.89097      6.71483         0.133471     -0.051182      0.070360
O      11.64930     13.64260      6.71095         0.128202      0.168601     -0.306921
O      11.74782      1.88307     10.76348        -0.934741     -0.112520      0.460823
O      11.70237     13.66243     10.84618        -0.391406     -0.385861      0.441144
O      11.68170      5.84023      2.55396         0.085183     -0.454204      0.030206
O      11.73939      5.77367     15.00144        -0.348987     -0.068207      0.163867
O      11.69594      5.89800      6.76719        -0.435732     -0.226258     -0.220511
O      11.61308      5.97795     10.89209         0.572235     -0.496029     -0.068464
O      11.65930      9.85269      2.55165         0.147274     -0.218431     -0.093603
O      11.62759      9.67650     15.06756         0.544861      0.388030     -0.343020
O      11.66014      9.67361      6.71170         0.340773      0.300113      0.162459
O      11.73456      9.77292     10.85329        -0.616661     -0.035578      0.195751
O       2.02313      3.82328      2.61142        -0.954002      0.919527     -0.366099
O       2.00965      3.84295     14.91681        -0.289257      0.641657      0.126436
O       1.97263      0.01872      2.46152        -0.192706     -0.443105      0.226910
O       1.95910     15.52689     14.97975         0.088175      0.712483      0.492636
O      13.72668      3.86664      2.57819        -0.426627      0.119875     -0.209931
O      13.75966      3.81877     15.03858        -0.352179      0.933611     -0.156551
O      13.73909     15.58088      2.62105        -0.759915      0.081378     -0.379856
O      13.71362     15.59103     14.92136        -0.439732      0.081165      0.372089
O       1.89549      3.83499      6.67191         0.159437     -0.067824      0.379923
O       1.94379     15.56046      6.67217         0.306648      0.088877      0.152787
O      13.56192      3.90901      6.78212         0.264254     -0.691789     -0.257831
O      13.68896     15.58112      6.69481        -0.595766     -0.169933      0.067141
O       2.02893      3.96942     10.92633        -0.825674     -0.133274     -0.386369
O       1.98648      0.04168     10.81163        -0.419266     -1.190526      0.181675
O      13.54101      3.89115     10.86814         0.085297      0.302356      0.115235
O      13.65640     15.53282     10.89808         0.187807      1.167608     -0.233072
O       1.98606      7.76012      2.50193        -0.238113     -0.090239      0.103427
O       1.82720      7.76106     14.98068         0.349507      0.474024      0.045226
O      13.55433      7.87485      2.45140        -0.043378     -0.894836      0.385216
O      13.52579      7.74652     15.02750         0.764132     -0.033613     -0.013402
O       1.84606      7.67186      6.63645         0.226802      1.590750      0.627921
O      13.64389      7.77222      6.69580         0.210396      0.163695      0.341942
O       1.88037      7.81406     10.92498         0.111325     -0.371352     -0.103182
O      13.60283      7.85585     10.79912         0.172627     -0.801594      0.441207
O       1.91622     11.67707      2.51129        -0.035168      0.221900      0.102493
O       1.90242     11.67071     15.04644        -0.064267      0.245712      0.193539
O      13.67784     11.62909      2.48366        -0.204664      1.539546      0.337975
O      13.70177     11.63260     15.00731        -0.547025      1.188904      0.038997
O       1.97683     11.62919      6.80164        -0.209616      0.334617     -0.695082
O      13.62728     11.70340      6.79349         0.023261     -0.103500     -0.789786
O       1.95704     11.70026     10.82398        -0.062293     -0.503928      0.363766
O      13.72785     11.75293     10.78048        -0.271545     -1.164019      0.619221
O       5.84054      3.90334      2.47758         0.347014     -0.484769      0.116437
O       5.78488      3.91753     15.04534         0.348506     -0.442189      0.050846
O       5.75839     15.54376      2.57143         0.395396      0.424350     -0.292224
O       5.67691     15.60166     15.01061         1.281394     -0.626974      0.003267
O       5.87464      3.90585      6.68030        -0.144031     -0.609971     -0.040766
O       5.84510     15.50698      6.62331         0.096328      1.257010      0.445800
O       5.82206      3.83500     10.87581         0.137647      0.153983     -0.080435
O       5.77954     15.55745     10.84475         0.443571      0.174164     -0.237722
O       5.86288      7.71378      2.51980        -0.276878      0.972585      0.013589
O       5.76934      7.83093     15.12735         0.699414     -0.144966     -0.577518
O       5.76710      7.80836      6.77780         0.565363     -0.448734     -0.387055
O       5.76879      7.72514     10.80526         0.718169      0.880646     -0.036795
O       5.79098     11.60811      2.59697         0.235459      0.524631     -0.337451
O       5.99433     11.65100     14.94719        -0.592200      0.438486      0.277197
O       5.81044     11.71538      6.59902         0.377813     -1.129695      0.466978
O       5.87678     11.68540     10.81759        -0.160402      0.207039     -0.057402
O       9.68996      3.88870      2.44233         0.248016     -0.250384      0.187062
O       9.73848      3.91432     15.12634        -0.292747     -0.538450     -0.434607
O       9.78467      0.03066      2.59472        -0.185942     -0.513861      0.090486
O       9.80725     15.57493     15.06647        -0.332550      0.060857     -0.375198
O       9.76262      3.92895      6.81115         0.028324     -0.551971     -0.342456
O       9.60785     15.59751      6.69691         0.861956     -0.346657     -0.167157
O       9.72268      3.80895     10.80885         0.115432      1.074546      0.461501
O       9.71446     15.57873     10.88333        -0.126988     -0.146991      0.252597
O       9.78143      7.80650      2.45477        -0.080512     -0.343510      0.466687
O       9.66092      7.77243     15.05109         0.609407     -0.017085     -0.311320
O       9.73173      7.77292      6.65456        -0.223600     -0.052760      0.478976
O       9.59679      7.81462     10.97539         0.885068     -0.672274     -0.753493
O       9.73221     11.71027      2.60302        -0.085792      0.072256     -0.130776
O       9.80473     11.67049     15.01256        -0.146660     -0.018687     -0.073102
O       9.76197     11.64111      6.77677        -0.446450      0.985429     -0.430359
O       9.68849     11.63575     10.82737         0.200730      0.559646      0.478413
