  # total energy = -7883.62229053 
CRSYTAL
PRIMVEC
    15.6080000000000005    0.0000000000000000    0.0000000000000000
     0.0000000000000000   15.6080000000000005    0.0000000000000000
     0.0000000000000000    0.0000000000000000   16.6239999999999988
PRESSURE
-0.9023 -1.00437 -1.1697 -0.22186 0.476806 0.027375
PRIMCOORD
320 1
Pb       3.94376      3.81331      4.13929        -0.241885      0.424678     -0.055141
Pb       3.84692      3.84352      0.04448         0.247307     -0.090668     -0.412491
Pb       3.91819     15.58925      4.15488        -0.126578     -0.078855      0.059149
Pb       3.84554     15.52747     16.61736         0.330139      0.489682     -0.218618
Pb      15.46650      3.84093      4.10096         0.648589      0.079233      0.202754
Pb      15.57643      3.85041     16.57389        -0.362141      0.002910      0.008721
Pb       0.05041     15.58758      4.10900        -0.042275      0.184789      0.412450
Pb       0.07438     15.59339      0.00716        -0.494688     -0.042876     -0.293540
Pb       3.91383      3.91227      8.31715        -0.005475      0.356538      0.045177
Pb       3.96282      0.15345      8.38362        -0.067461     -0.421480     -0.013663
Pb      15.57106      3.92836      8.23066         0.284711     -0.035847      0.104139
Pb       0.07911      0.01316      8.27260        -0.165040     -0.244452      0.064922
Pb       3.74019      4.01200     12.55383         0.620643     -0.311055     -0.355063
Pb       3.81226     15.46678     12.42774         0.230519      0.620047     -0.047745
Pb      15.56161      3.82090     12.36190        -0.087682      0.324907      0.427874
Pb       0.01934     15.59593     12.44033        -0.254882      0.157932     -0.329562
Pb       3.76263      7.83482      4.07975         0.139658     -0.454605      0.158487
Pb       3.77932      7.72148     16.55921         0.729294      0.047903      0.540420
Pb      15.60609      7.87963      4.01624         0.082356     -0.484343      0.246536
Pb      15.58861      7.79433     16.59718        -0.177481     -0.272975      0.630525
Pb       3.98055      7.80480      8.30364         0.263418     -0.165842      0.006055
Pb      15.50536      7.80008      8.41441        -0.024468     -0.156015     -0.773653
Pb       3.83476      7.85366     12.54645         0.395195      0.119579     -0.706148
Pb      15.48995      7.73924     12.46024         0.235203     -0.096351     -0.153845
Pb       3.92433     11.71234      4.14938         0.008633      0.136948     -0.287055
Pb       3.86874     11.67882     16.52423         0.492488     -0.103365      0.235473
Pb      15.60779     11.81559      4.11501         0.164694     -0.078024      0.514097
Pb       0.04988     11.80324      0.08659        -0.640805     -0.151057     -0.418011
Pb       3.86777     11.75418      8.30034        -0.078153     -0.207566     -0.175711
Pb      15.44817     11.69538      8.21566         0.698973      0.310276     -0.170490
Pb       3.79689     11.81289     12.45905         0.349910     -0.510936     -0.379021
Pb      15.56501     11.53803     12.38658         0.179959      0.104100      0.376880
Pb       7.71804      3.80569      4.10170         0.580877      0.300840     -0.029309
Pb       7.61160      3.73640     16.58120         0.960428      0.572381      0.241302
Pb       7.70162     15.55209      4.08878         0.743906      0.116981      0.235993
Pb       7.76717     15.51965      0.02714         0.107612      0.500002     -0.336538
Pb       7.75803      3.88844      8.41090        -0.094338     -0.088645     -0.053280
Pb       7.86297     15.53809      8.43278        -0.467972      0.289787     -0.360019
Pb       7.79594      3.90100     12.51565        -0.422235     -0.106196     -0.572397
Pb       7.90001      0.07173     12.52726        -0.382767     -0.168455     -0.097415
Pb       7.68193      7.79265      3.98912         0.527035      0.117756      0.185886
Pb       7.80613      7.84320     16.53161        -0.013075     -0.389126      0.434007
Pb       7.91840      7.84292      8.36572        -0.700791      0.022221     -0.136934
Pb       7.91786      7.69840     12.51368        -0.944405      0.128008     -0.572182
Pb       7.76751     11.78222      4.04534         0.077608     -0.368427     -0.154667
Pb       7.77396     11.60699     16.55490         0.147831      0.094974     -0.016866
Pb       7.64734     11.67124      8.30639         0.602649      0.083757      0.205244
Pb       7.78127     11.59649     12.48998        -0.120009      0.619543      0.147806
Pb      11.74131      3.97639      4.27210        -0.591584     -0.430717     -0.344498
Pb      11.77018      3.94958      0.02001        -0.524832     -0.389080     -0.237158
Pb      11.68419      0.14890      4.20522        -0.172812     -0.090910     -0.205684
Pb      11.65999     15.56498     16.59771         0.351067      0.555830     -0.148643
Pb      11.63676      3.95721      8.31827         0.064189     -0.363128     -0.017523
Pb      11.48446     15.50975      8.22225         0.793969      0.395329      0.712756
Pb      11.69609      3.78941     12.44954         0.218884      0.125503     -0.169478
Pb      11.73051     15.49036     12.40277         0.319363      0.419336     -0.248208
Pb      11.76547      7.64739      3.98140        -0.494385      0.360138      0.550354
Pb      11.65813      7.76151     16.60995         0.101311     -0.103956      0.321742
Pb      11.65382      7.84134      8.12338         0.734703     -0.021651      0.425743
Pb      11.61492      7.79347     12.51637         0.528880     -0.212559     -0.659854
Pb      11.66602     11.71122      4.30794        -0.261404      0.243305     -0.114733
Pb      11.89917     11.75374     16.58596        -0.415449     -0.140123      0.264980
Pb      11.73913     11.73130      8.31886        -0.689134     -0.150770     -0.504721
Pb      11.59391     11.65487     12.32975         0.223458      0.207591      0.575445
Ti       1.95044      1.96780      2.16602         0.261334     -0.166919      0.334350
Ti       1.87933      1.92332     14.72767         0.840014     -0.119199     -0.002257
Ti       1.97775     13.65247      2.21584         1.326494      0.321576     -0.305691
Ti       1.95277     13.61036     14.66190        -0.162774      0.610449     -0.188413
Ti      13.66583      1.90893      2.21927        -0.799930      0.239068      0.022299
Ti      13.58024      1.88156     14.65705        -0.064983     -0.009622     -0.155927
Ti      13.68474     13.73057      2.24752        -0.418383     -0.251234     -0.096709
Ti      13.66294     13.60654     14.60343         0.212435      0.525621      0.667998
Ti       1.93749      1.85434      6.32510         0.149491      1.137497      0.012303
Ti       2.02333     13.64301      6.40592        -0.538734     -0.252160     -0.069166
Ti      13.59970      1.92320      6.40299        -0.324735     -0.110352     -0.751275
Ti      13.63139     13.74292      6.37877         0.173684     -0.344359      0.200939
Ti       1.95576      1.92915     10.56144         0.483221     -0.501164      0.162684
Ti       1.86189     13.58973     10.48917         0.731015      0.576028     -0.147812
Ti      13.72677      1.87105     10.41176        -0.938404      0.110444      2.423589
Ti      13.70006     13.52337     10.47832        -0.769086      2.371379     -0.364418
Ti       1.91955      5.80736      2.14859         0.508006     -0.052760      1.570051
Ti       1.98351      5.80072     14.68489        -0.295338     -0.681578     -1.129095
Ti      13.62231      5.77370      2.23974         0.700828      0.078941      0.075556
Ti      13.70102      5.83244     14.73880        -0.314448     -0.669516     -0.742981
Ti       1.99232      5.75929      6.33678         0.629942      0.412950     -0.224773
Ti      13.72555      5.79800      6.29976        -1.205479      0.586616      0.551881
Ti       1.93694      5.75411     10.48903         0.446597      0.593371      0.745984
Ti      13.56638      5.86314     10.51306         0.771538     -0.991119     -0.732097
Ti       1.86518      9.75195      2.19266         0.551551      0.080222     -0.172297
Ti       1.87997      9.68690     14.75050         0.598786      0.285854     -0.302004
Ti      13.60341      9.87126      2.26840         0.659311     -0.480182     -0.075852
Ti      13.69613      9.71796     14.74132         0.276821      0.396408     -1.246068
Ti       1.97116      9.65510      6.44740         0.193639      0.191710     -0.300486
Ti      13.67593      9.77460      6.28561        -0.632802     -0.716273     -0.009430
Ti       1.91152      9.65324     10.46070         0.701220      0.007494      0.522615
Ti      13.57135      9.75201     10.52827        -0.085753     -1.174114      0.341630
Ti       5.82538      1.90158      2.21011         0.464198      0.375341     -0.953202
Ti       5.82934      1.90376     14.62292        -0.531136     -0.067231      0.536168
Ti       5.86756     13.68700      2.12440        -0.492006     -1.547673      0.234518
Ti       5.86882     13.62146     14.70633         0.380131      0.668640     -1.726131
Ti       5.82435      1.94162      6.46172         0.157791     -0.435865     -0.262757
Ti       5.83610     13.63703      6.43158        -0.169167      1.062045     -0.348306
Ti       5.81638      1.98400     10.58215        -0.064746      0.576686      0.154774
Ti       5.85311     13.73489     10.61816         0.140333     -0.057807      0.275660
Ti       5.87585      5.80924      2.14177        -0.509403     -0.017023     -0.234191
Ti       5.89424      5.84505     14.71583        -0.034611     -0.947231     -0.066820
Ti       5.97920      5.87431      6.35775        -1.119158      0.186302     -0.173725
Ti       5.80621      5.93210     10.46776        -0.586379     -0.174397     -0.073025
Ti       5.76346      9.68779      2.19077         0.812509      1.004416     -0.512769
Ti       5.87083      9.66502     14.72468        -0.609441      0.864916     -1.575369
Ti       5.89452      9.77623      6.33625        -0.793045     -0.840352      0.059549
Ti       5.76647      9.87035     10.57431        -0.397046     -2.337999     -0.065494
Ti       9.74960      1.94105      2.24978         0.012990      0.130733      0.546519
Ti       9.70920      1.91048     14.65243         0.429696      0.608936     -0.018637
Ti       9.89527     13.63868      2.15808        -0.575356      0.516324      0.591726
Ti       9.80157     13.64533     14.69155        -0.568343     -0.244873     -1.023762
Ti       9.65678      1.94411      6.43530         0.467244      0.065004     -0.061209
Ti       9.66386     13.61487      6.42584         0.494094     -0.528023     -0.892223
Ti       9.75217      1.95233     10.54250         0.288137      0.218443     -0.781210
Ti       9.71645     13.61576     10.63338         0.156088      0.037504     -0.923401
Ti       9.69059      5.86652      2.14852        -0.415842     -1.663936      0.152733
Ti       9.77400      5.85116     14.63700        -0.165206     -1.838759      0.592221
Ti       9.75990      5.82089      6.40078         0.510712     -0.364956     -0.697378
Ti       9.72448      5.86033     10.46772        -0.007001     -0.968204      0.685329
Ti       9.78119      9.81211      2.18224        -0.673221     -0.458817      0.431552
Ti       9.90507      9.74207     14.63460        -1.241411      0.913826      0.198306
Ti       9.67847      9.72585      6.32181         0.597061      0.879467     -0.874769
Ti       9.63507      9.71778     10.50393         0.543048      0.217865     -1.136556
O       2.04969      1.91292      0.36378        -0.639853      0.349518      0.974522
O       1.84383      1.83160     12.96963         0.164999     -0.117809     -0.790649
O       2.15086     13.69902      0.39410        -0.894014     -0.517490      0.277273
O       1.97865     13.69485     12.82834        -0.247469     -0.280593      1.156298
O      13.65608      1.86973      0.45990         0.086836      0.088201     -0.437395
O      13.67365      1.93479     12.85273         0.061121     -0.138116      0.949075
O      13.67708     13.62973      0.45287         0.007608     -0.124143      0.309456
O      13.69619     13.56934     12.84012        -0.045507      0.084410      0.133552
O       2.14119      1.96826      4.56001        -0.530747     -0.183144     -0.177216
O       1.95804     13.59916      4.60552        -0.031601      0.348824     -0.276394
O      13.56338      1.96423      4.57423         0.164446     -0.283332      0.310004
O      13.76112     13.68537      4.58837        -0.137806     -0.478898     -0.334079
O       1.93126      1.92117      8.79783         0.092796     -0.003002     -0.771944
O       1.91716     13.71137      8.73373        -0.035539     -0.300137     -0.594810
O      13.65951      1.89647      8.71171         0.163156      0.245365     -2.047718
O      13.59851     13.58985      8.68105         0.168209     -0.241007      0.527465
O       1.99938      5.72289      0.39375        -0.157601      0.295742     -0.862697
O       1.98888      5.79900     12.84585         0.186274      0.111481      1.156592
O      13.70290      5.67171      0.47855        -0.102300      0.354338     -1.217104
O      13.70502      5.89124     12.95885        -0.150059     -0.142453      0.057145
O       2.08265      5.93340      4.53778        -0.222341     -0.025606      0.424138
O      13.54056      5.72597      4.50190         0.395193      0.219861     -0.081361
O       1.92582      5.63194      8.74567        -0.313124      0.308882     -0.982775
O      13.63214      5.78216      8.67052         0.274863      0.254130      0.772569
O       1.83283      9.60606      0.41460         0.370302      0.618329     -0.322322
O       1.72448      9.54252     13.00526         0.277043      0.617285     -0.456396
O      13.68542      9.87864      0.49498        -0.128102     -0.419392     -0.994438
O      13.76277      9.75995     12.90433        -0.098924     -0.281504      0.733895
O       2.01630      9.58752      4.62881        -0.139288      0.160830      0.079548
O      13.64014      9.82532      4.48939         0.239064     -0.084624      0.186420
O       1.90114      9.69428      8.68145        -0.027115      0.286817      0.502903
O      13.54046      9.59637      8.76942         0.607743      0.582564     -0.133088
O       6.01664      1.90079      0.39498        -0.468804      0.100519      0.680564
O       5.93397      2.03989     12.87359        -0.121170     -0.417063     -0.662587
O       5.73528     13.63910      0.35534         0.478362     -0.027930     -0.485252
O       5.91567     13.64301     12.82727        -0.432744     -0.464580      1.168334
O       5.72053      1.88806      4.64906         0.298907      0.124602     -0.164979
O       5.77859     13.77874      4.65895         0.324482     -0.506596     -0.707156
O       5.71375      1.80066      8.77252         0.437459      0.343941     -0.316017
O       6.00444     13.67146      8.84396        -0.261280     -0.385676     -0.603847
O       5.92910      5.74239      0.34357         0.007848     -0.031992     -0.339379
O       5.83597      5.75612     12.93644         0.161505      0.324693     -0.100665
O       5.98000      5.81155      4.52978        -0.311167      0.206123      1.078412
O       5.78939      5.96870      8.66239         0.314760     -0.151077      0.164867
O       5.82528      9.81001      0.40122         0.003823     -0.293834     -0.405042
O       5.76716      9.57295     12.90459         0.504295      0.741762      0.512553
O       5.91643      9.70123      4.54777        -0.051957      0.045233     -0.382119
O       5.82715      9.78087      8.77300        -0.047545      0.217163      0.220405
O       9.67864      1.72398      0.51179        -0.068506      0.208408     -1.054770
O       9.65048      1.90286     12.84126         0.490740      0.437230      0.337639
O       9.81253     13.59340      0.36140         0.147652      0.392033      0.596012
O       9.71585     13.52350     12.84625         0.709983      0.262504      0.766359
O       9.65762      1.89612      4.64161         0.271934      0.080798      0.212014
O       9.74562     13.60557      4.63798        -0.103164      0.030531      0.044615
O       9.77308      1.89055      8.71557        -0.388905     -0.084138      1.077183
O       9.75493     13.60386      8.80314        -0.313388      0.203870      0.095247
O       9.68748      5.71514      0.38476         0.539599      0.567197      0.095543
O       9.76468      5.81564     12.80563        -0.130109      0.426725      0.828703
O       9.86919      5.74127      4.59426        -0.329064      0.200395      0.501080
O       9.84637      5.89909      8.69588        -0.238545     -0.062521      0.230105
O       9.96467      9.76001      0.41028        -0.603671     -0.067159     -0.606835
O       9.78259      9.74578     12.81000        -0.076294     -0.354808      0.983519
O       9.55896      9.68990      4.47335         0.761738      0.104642      1.237528
O       9.70231      9.78603      8.67364         0.020446     -0.550352      1.026008
O       3.88480      1.94399      2.42488         0.387922      0.458105      0.215923
O       3.95534      1.97373     15.09403        -0.131294     -0.040807     -0.527210
O       3.93496     13.46871      2.49354        -0.199837      0.682221      0.352247
O       3.90847     13.59105     14.87962        -1.005663     -0.484291      0.049565
O       0.00967      1.89795      2.55298         0.686185     -0.194455     -0.071041
O       0.00628      1.84818     15.09908        -0.638804      0.140996     -0.213761
O       0.09654     13.88710      2.46414        -0.773360     -1.101550      0.013583
O      15.56946     13.70458     15.04732         0.888863     -0.174535     -0.169161
O       3.88120      1.97129      6.68512         0.185871     -0.199700      0.409270
O       3.88929     13.68501      6.71652         0.265224     -0.300515      0.329458
O      15.59322      1.80160      6.57259        -0.211542      0.376021      0.269246
O      15.53662     13.72613      6.73349         0.509476     -0.560284     -0.036124
O       3.92715      1.88184     10.93839        -0.435790      0.239046     -0.064986
O       3.90152     13.52841     10.74171         0.168715      0.493799      0.562712
O       0.00648      1.77726     10.79059         0.174453      0.649039      0.241446
O      15.58968     13.60573     10.72015         0.027344      0.026692      0.372824
O       3.99519      5.80719      2.37979        -1.075155      0.290901      0.349616
O       3.95587      5.71705     15.06512        -0.363452      0.305782     -0.269051
O       0.06487      5.91635      2.51078        -0.287457     -0.227422      0.119413
O       0.04862      5.72812     14.97266        -0.119953      0.715918      0.274131
O       3.86534      5.73936      6.67418         0.482325      0.394118     -0.115976
O      15.56335      5.72865      6.53059         0.468738      0.275061      0.409632
O       3.91194      5.62364     10.74057        -0.455960     -0.049148      0.436748
O       0.05755      5.83733     10.76341        -0.548848      0.550542      0.260319
O       3.87787      9.80948      2.48161        -0.058365     -0.284333      0.073515
O       3.84976      9.77615     14.90442        -0.179495     -0.070261      0.562280
O      15.58094      9.69920      2.44326         0.426233      0.040064      0.642465
O      15.54995      9.56013     15.11238         0.630015      0.217467     -0.186444
O       3.97731      9.71992      6.74397        -1.053542      0.240847     -0.196995
O      15.60226      9.74818      6.62046        -0.064607      0.211885      0.272654
O       3.83044      9.78381     10.92751        -0.438532      0.400906     -0.114252
O      15.56120      9.67219     10.88108         0.416606     -0.013651     -0.649865
O       7.72277      1.85523      2.59092        -0.187939     -0.440113      0.131643
O       7.81542      1.68720     14.91794        -0.013996      0.243793      0.329197
O       7.81875     13.66342      2.42214         0.027732      0.234884      0.135238
O       7.86610     13.74584     14.94678        -0.522041     -0.183240      0.395789
O       7.77192      1.84031      6.74903        -0.570216      0.527980      0.145897
O       7.77973     13.59487      6.71300        -0.049384      0.017292      0.114927
O       7.83463      1.93626     10.87382        -0.086421     -0.221906     -0.300119
O       7.88487     13.62833     11.01727        -0.837534     -0.000522     -0.735762
O       7.77470      5.79582      2.41666         0.960288      0.232192      0.525326
O       7.87196      5.80832     14.98350        -0.298859      0.612968     -0.372254
O       7.83190      5.81636      6.70848         0.169066      0.324865      0.033389
O       7.74052      5.92197     10.74439         0.988229      0.160179      0.260991
O       7.83676      9.68158      2.40594         0.253823      0.353134     -0.176590
O       7.80193      9.68170     14.89341         0.650731      0.191564      0.510600
O       7.77929      9.83707      6.75752         0.222047     -0.679068     -0.282063
O       7.74127      9.57433     10.77407         0.296178      0.270316      0.413962
O      11.69910      1.99845      2.48361         0.219050     -0.099606      0.352138
O      11.68908      1.89124     14.99351         0.629769      0.450166     -0.008832
O      11.79357     13.57644      2.55638        -0.827521      0.049186     -0.112300
O      11.71429     13.53824     15.00033         0.589852     -0.117830     -0.282184
O      11.60523      1.86810      6.77544         0.873440      0.210492     -0.534113
O      11.63996     13.57315      6.69307         0.273075      0.081862     -0.065472
O      11.72537      2.13203     10.84880         0.198670     -0.861380     -0.219976
O      11.71521     13.59971     10.83043        -0.011736     -0.246263      0.257300
O      11.73828      5.61431      2.47471        -0.834391      0.432233     -0.086166
O      11.67698      5.84242     15.08008         0.384603     -0.181839     -0.204488
O      11.74223      5.81564      6.66258        -0.312986     -0.057274      0.002408
O      11.73253      5.73620     10.91022        -0.204668      0.405659     -0.332951
O      11.78480      9.71032      2.43308        -1.393451      0.212069      0.770198
O      11.78007      9.78341     14.87629        -0.928127     -0.315539      0.294588
O      11.70970      9.80995      6.58260        -0.303890     -0.498624     -0.040568
O      11.67647      9.75879     10.90545         0.209699     -0.249507     -0.295945
O       1.94716      3.92985      2.52220         0.000186     -0.761070     -0.173971
O       1.97629      3.83267     14.85802         0.042328      0.636976      0.715405
O       2.06213      0.00093      2.53094        -0.054460      0.155171     -0.111650
O       1.98342     15.60443     15.09183        -0.002913     -1.265665     -0.469585
O      13.82173      3.84738      2.46100        -0.198995     -0.168109      0.363945
O      13.67256      3.84487     15.00361        -0.067761      0.052723      0.139391
O      13.60892     15.60012      2.58594         0.171676      0.094632      0.014346
O      13.55764     15.53705     14.99326         0.340927      0.073056     -0.312165
O       1.93194      3.85632      6.68446        -0.379433     -0.104904     -0.231180
O       1.97182     15.58133      6.60846        -0.046162      0.407478      0.283278
O      13.60487      3.81510      6.46659         0.173882      0.551859      0.943534
O      13.53178     15.56688      6.60948         0.032072      0.484064      0.276674
O       1.93884      3.80742     10.90614        -0.294525      0.273052      0.093046
O       1.96973      0.00045     10.82205         0.000896     -1.041404      0.365091
O      13.87083      3.91856     10.82583        -0.803435     -0.236643     -0.313860
O      13.69975     15.56676     10.79105        -0.503839     -0.161389      0.150141
O       1.96390      7.85554      2.44102         0.248314     -0.644494      0.255648
O       2.08884      7.71949     15.01781        -0.864755     -0.159114      0.035166
O      13.58786      7.67170      2.50493         0.294763      0.854613     -0.026151
O      13.58182      7.72261     15.03963         0.328912      0.618264      0.345973
O       1.91053      7.77367      6.82582        -0.053475     -0.299964     -0.416483
O      13.63500      7.80595      6.63135         0.359460     -0.256547     -0.240013
O       2.14330      7.75986     10.79779        -0.894066      0.179852     -0.395961
O      13.60300      7.76759     10.86384         0.119448      0.085921      0.045143
O       1.92057     11.73836      2.59613        -0.565231     -0.620023     -0.464398
O       1.79635     11.65514     15.04064         0.257326      0.478471     -0.352553
O      13.76824     11.76120      2.53414         0.112610     -0.073039      0.112206
O      13.77065     11.62735     14.99790         0.011037      0.634382      0.172730
O       2.02464     11.75093      6.62886        -0.415138     -0.975622      0.539731
O      13.60643     11.65565      6.78699         0.285469      0.162622     -0.614138
O       1.95205     11.70091     10.82265        -0.450288     -0.769360      0.140177
O      13.68127     11.69504     10.80896        -0.030771     -1.240547     -0.119120
O       5.91669      3.88673      2.55397        -0.348484     -1.081429     -0.296401
O       6.01209      3.84502     14.85200        -0.091779      0.012216      0.687079
O       5.72577     15.55342      2.41126         0.298871      0.482270      0.438475
O       5.71710     15.52259     14.92059         0.450790      0.283722      0.231469
O       5.93661      3.92085      6.82329        -0.273295     -0.578349     -0.497290
O       5.80685     15.54101      6.73825         0.173800      0.911978      0.269383
O       5.95375      3.87380     10.59014         0.042280     -0.178314      0.584476
O       5.83152     15.60095     10.82188         0.197885     -0.491528      0.351588
O       5.96949      7.76446      2.32471        -0.603173      0.484376      0.468031
O       5.86955      7.81373     14.93801        -0.188743     -1.202382      0.707775
O       5.83833      7.83981      6.68084         0.421464     -0.710331     -0.259737
O       5.54343      7.76036     10.83060         0.706332      0.077484      0.026430
O       5.88875     11.69569      2.46802         0.222093     -0.098058      0.410772
O       5.88464     11.69149     15.02293         0.169082     -0.091924     -0.129267
O       5.81482     11.70891      6.60246        -0.010118     -0.069062      0.481919
O       5.80532     11.64996     10.85943         0.623136      1.082889      0.365296
O       9.57611      3.79325      2.51686         0.356366      0.585749      0.049971
O       9.78877      3.82328     14.93762        -0.246299      0.202099     -0.114254
O       9.85477     15.57841      2.66535        -0.349953     -0.949595     -0.496679
O       9.98567      0.00413     14.92547        -0.708063     -1.295169     -0.106544
O       9.77095      3.89763      6.85553        -0.351916     -0.060877     -0.565947
O       9.66116     15.60069      6.78553         0.082159     -0.951134     -0.368999
O       9.76440      3.93238     10.69693        -0.427613     -0.049668      0.408392
O       9.83977      0.02619     10.93435        -0.140538     -0.724065     -0.457106
O       9.77867      7.70659      2.42178         0.446000      0.627759      0.014515
O       9.78152      7.76322     14.99894         0.280043      0.782934     -0.352117
O       9.78964      7.75759      6.77012        -0.662790      0.580220     -0.805883
O       9.74200      7.75549     10.80808         0.428899      0.406948      0.316979
O       9.77986     11.71168      2.51754         0.099318     -0.049298      0.057139
O       9.67942     11.69043     14.94372         0.312456     -1.033979     -0.061029
O       9.76800     11.62214      6.57520        -0.177675      0.446304      0.278745
O       9.68925     11.60553     10.75260         0.049522      0.419836      0.606046
