  # total energy = -7877.63151353 
CRSYTAL
PRIMVEC
    15.6080000000000005    0.0000000000000000    0.0000000000000000
     0.0000000000000000   15.6080000000000005    0.0000000000000000
     0.0000000000000000    0.0000000000000000   16.6239999999999988
PRESSURE
0.358395 0.377085 1.07664 -0.357403 -0.177971 -0.068604
PRIMCOORD
320 1
Pb       3.94621      3.93638      4.14688        -0.499593     -0.259759      0.095191
Pb       3.98330      4.00006      0.06361        -0.266627     -0.172852     -0.330383
Pb       3.88668     15.60280      4.07536         0.016529      0.390470      0.081971
Pb       3.81698     15.58137     16.59502         0.394692     -0.231087      0.687184
Pb       0.04013      3.85785      4.10369        -0.332471      0.194085      0.612339
Pb      15.52643      3.85600     16.62021        -0.296581      0.199397      0.090603
Pb      15.53980     15.59738      4.03498         0.541396     -0.317297      0.757326
Pb      15.54080     15.56424     16.60204        -0.222469      0.219020      0.017637
Pb       3.78236      3.86506      8.31345        -0.110082     -0.600280     -0.093823
Pb       3.89332      0.02434      8.32110        -0.002644     -0.166388     -0.434048
Pb      15.56862      3.84126      8.26315         0.194946      0.424382      0.298372
Pb       0.07159     15.57779      8.22519        -0.431342     -0.011651      0.232208
Pb       3.90810      3.92451     12.39214        -0.023176     -0.158882      0.062741
Pb       3.85613     15.50441     12.34564         0.182237     -0.269989      0.210442
Pb      15.57956      3.81049     12.44177         0.144616      0.165150     -0.183323
Pb      15.54661      0.14821     12.51277         0.325476     -0.632609     -0.503730
Pb       3.84855      7.81191      4.24769        -0.029282      0.247041     -0.745719
Pb       3.83807      7.75663      0.00580         0.403443      0.190100     -0.043060
Pb       0.11592      7.83148      4.17055        -0.157517      0.367801      0.036743
Pb       0.00934      7.76430      0.00825        -0.224306     -0.043734     -0.240450
Pb       4.00965      7.74313      8.13755        -0.858573      0.091662      1.115974
Pb      15.49888      7.78613      8.39859         0.606905     -0.488624      0.247605
Pb       3.90232      7.83505     12.45771        -0.076427     -0.117395     -0.506127
Pb       0.00545      7.84559     12.51011        -0.612413      0.566357      0.290193
Pb       3.86551     11.68236      4.10033         0.203865     -0.409672      0.109541
Pb       3.90390     11.61886     16.50031        -0.157159      0.706958      0.546750
Pb      15.59280     11.66090      4.10953        -0.360813      0.163460     -0.095202
Pb      15.57297     11.74875     16.55784        -0.254542      0.013458      0.611002
Pb       3.83618     11.65661      8.18350         0.709666      0.232563     -0.008376
Pb      15.56923     11.64944      8.31590         0.016384      0.064539     -0.458296
Pb       3.98030     11.68964     12.37796        -0.336759      0.197701      0.430259
Pb       0.09405     11.60155     12.35107        -0.839357      0.142469      0.978485
Pb       7.84029      3.82748      4.16717        -0.124519     -0.168128     -0.358868
Pb       7.84771      3.95758      0.06202        -0.611288     -0.491576     -0.725679
Pb       7.81419     15.51810      4.04639        -0.319890     -0.023611     -0.076233
Pb       7.86286      0.09400      0.03042        -0.405141     -0.766962      0.083533
Pb       7.67725      3.94203      8.29016         0.447735     -0.070520      0.447029
Pb       7.81050     15.54527      8.32250         0.084581     -0.030849      0.350051
Pb       7.72996      3.85345     12.41415        -0.097764     -0.052206      0.214531
Pb       7.73268     15.57417     12.48640         0.005973      0.070315      0.342417
Pb       7.75134      7.82739      4.15491        -0.328938     -0.093437     -0.082368
Pb       7.85772      7.90903     16.60655        -0.795179     -0.528971     -0.240969
Pb       7.79055      7.77200      8.26007         0.208667      0.466704      0.757005
Pb       7.86768      7.66860     12.33891        -1.084191      0.258121      0.701068
Pb       7.90777     11.67801      4.23668        -0.542156      0.097562     -0.346440
Pb       7.74097     11.66535      0.02109        -0.056600      0.469733     -0.066652
Pb       7.68501     11.72914      8.17040         0.204789     -0.725115      0.871950
Pb       7.74183     11.57466     12.41766        -0.193546      0.554713      0.027911
Pb      11.71933      3.93603      4.21549         0.012017     -0.712972      0.179772
Pb      11.74888      4.00681      0.02890         0.172566     -0.904995      0.218058
Pb      11.55308     15.54870      4.10905         0.872369     -0.065837      0.965529
Pb      11.61123     15.56563      0.04201         0.302147     -0.236654     -0.088261
Pb      11.76014      3.96376      8.29285        -0.729313      0.427129      0.865443
Pb      11.67626      0.06472      8.23785        -0.520794     -0.630697      0.807868
Pb      11.81005      3.84862     12.51210        -1.271766      0.016951      0.624618
Pb      11.83323     15.55798     12.43079        -1.058794      0.171347     -0.031904
Pb      11.70054      7.59406      4.05647         0.122752      0.725112      0.231132
Pb      11.49602      7.77586     16.60521         0.946316      0.209561      0.113309
Pb      11.62182      7.89299      8.20148        -0.432921     -0.850463      1.470698
Pb      11.62215      7.80583     12.54350         0.033785      0.567303     -0.075940
Pb      11.60529     11.50132      4.20172         0.641699      0.217411     -0.208685
Pb      11.75626     11.74431     16.56147        -0.311387     -0.112789      0.051154
Pb      11.90438     11.81022      8.32383        -0.947737     -0.172604     -0.351643
Pb      11.66260     11.78358     12.42330         0.137750     -0.476104      0.524344
Ti       1.97708      2.06739      2.15477        -0.459890      0.103545      1.149430
Ti       1.94871      2.00377     14.66320        -0.940025      0.049296     -0.344645
Ti       1.92406     13.74432      2.17417        -0.081796     -0.860654     -0.733644
Ti       1.85182     13.66789     14.75381         1.246757     -0.742054     -1.571787
Ti      13.65290      1.86336      2.36646        -0.248771      1.893408     -1.222727
Ti      13.63440      1.84964     14.59723        -0.431778      1.367276      1.200855
Ti      13.65512     13.63634      2.20056        -0.168432     -0.328753     -0.857440
Ti      13.60771     13.61160     14.60492         0.295083     -0.220939     -0.170223
Ti       1.88002      1.79913      6.27844         0.862893      1.106618      0.611894
Ti       1.96170     13.58438      6.45158        -0.343216     -0.105994      0.617133
Ti      13.52703      1.99558      6.47410         0.827827     -0.194624     -1.772339
Ti      13.61035     13.72611      6.45304         0.458153     -0.714629     -1.493712
Ti       2.01612      1.84196     10.51393        -1.059905      0.572995      1.885844
Ti       1.90514     13.53078     10.49478        -0.133044      1.327955      0.123844
Ti      13.57545      1.96144     10.40345         0.178616      0.456867      1.312994
Ti      13.64713     13.67982     10.54337         0.354001      0.001449      1.401597
Ti       1.82312      5.90392      2.17363         0.406151     -0.628038      0.345410
Ti       1.99471      5.88740     14.53029        -0.907713     -0.250480      1.149357
Ti      13.57913      5.77581      2.37500         0.639409     -0.348668     -1.356300
Ti      13.73281      5.84805     14.68795        -0.814525     -0.188955     -0.165978
Ti       1.92847      5.75254      6.47044        -1.519680      0.069298      0.656275
Ti      13.64900      5.88721      6.49274         0.189875     -1.195480     -0.016343
Ti       1.67277      5.92523     10.59476         1.542785     -0.959027     -1.134705
Ti      13.43982      5.96314     10.72574         0.652403     -0.325508     -2.145828
Ti       1.97699      9.79545      2.16870        -0.088353     -0.977254      0.707825
Ti       1.88328      9.74328     14.77099        -0.502541      0.995684     -0.388627
Ti      13.64306      9.69781      2.00674        -0.297038      0.168265      2.146714
Ti      13.64298      9.69163     14.80512        -0.002016      0.229929      0.349142
Ti       1.93424      9.65436      6.43657        -0.578339      0.031192     -0.986900
Ti      13.69909      9.68327      6.44311        -0.279031      0.762032     -1.447855
Ti       1.95734      9.73307     10.45046        -0.429557     -1.122294      0.051842
Ti      13.64995      9.78569     10.38924        -0.573951     -0.817717      1.140125
Ti       5.84163      1.94778      2.25240         0.141145     -0.569527     -0.190528
Ti       5.69577      1.79943     14.82186         1.998664      0.918111     -0.455953
Ti       5.75869     13.59238      2.26427         1.129715     -0.083130      0.298228
Ti       5.81043     13.59151     14.55425         0.033146     -0.400918      0.069935
Ti       5.82755      1.89151      6.34437        -0.910075      0.422354     -0.668982
Ti       5.89103     13.74767      6.27140        -0.556709     -0.879150      0.938663
Ti       5.82196      1.86454     10.44059         0.742997      0.376459      1.002402
Ti       5.82305     13.60742     10.34473         1.237462      0.202622     -0.310422
Ti       5.64360      5.83993      2.20379         2.159908      0.558396     -0.446555
Ti       5.79778      5.83534     14.68904         0.972761     -0.365784      0.065051
Ti       5.84113      5.73613      6.38645        -0.043962     -0.027173     -0.565608
Ti       5.60900      5.83987     10.41078         1.623155      0.122452      1.976039
Ti       5.82715      9.71140      2.15232        -0.077096      0.431190      0.764783
Ti       5.77686      9.72291     14.62220         0.657610      0.088325      0.635486
Ti       5.84154      9.70866      6.28573         1.062981     -0.224758     -0.418312
Ti       5.80699      9.75130     10.47591         1.054223     -0.354430     -0.043052
Ti       9.78018      1.91473      2.29831         0.013985      0.404160      0.766634
Ti       9.79178      1.85157     14.75056        -0.578767      0.904038     -1.188344
Ti       9.75646     13.59000      2.22845        -0.529678      0.064147     -0.693932
Ti       9.69630     13.58035     14.70444         0.157310      0.559495     -0.211222
Ti       9.60827      1.95466      6.53635         1.019158      0.741552     -1.751710
Ti       9.68491     13.64418      6.33864         0.790685     -0.358956     -1.176088
Ti       9.68831      1.90617     10.60923         0.462107     -0.083059     -0.409208
Ti       9.61929     13.67027     10.60574        -0.262169      0.297638      0.283459
Ti       9.55484      5.78989      2.16261         0.358069     -0.427366      1.099752
Ti       9.78127      5.81831     14.75924        -0.790188     -1.129897      0.839362
Ti       9.72229      5.87501      6.33583         0.006162     -0.296482      0.936133
Ti       9.64842      5.87553     10.56972         0.097904     -0.383339     -0.745271
Ti       9.69550      9.63639      2.25285         1.238752      1.035229     -0.021417
Ti       9.67420      9.75616     14.64753         1.517556      0.226603     -0.125666
Ti       9.75210      9.74130      6.47069        -0.865950      0.188233     -0.437498
Ti       9.69240      9.77225     10.66422        -0.046717     -0.727529     -1.732898
O       1.86730      2.17262      0.43565         0.384132     -0.346704     -1.369880
O       1.82872      1.76560     12.86509         0.608300      0.408247      0.422762
O       1.99801     13.67153      0.38237         0.187802      0.051655      0.567672
O       1.92606     13.62797     12.88263        -0.045435      0.122413      0.413329
O      13.59426      1.83638      0.57738         0.423270      0.135539     -0.008158
O      13.48266      1.94429     12.82414         0.533426      0.051442      0.071169
O      13.73519     13.78879      0.35239        -0.242678      0.094274      1.289894
O      13.70062     13.53678     12.76729        -0.209182      0.525371      0.630423
O       2.04647      1.85435      4.55150        -0.251616      0.070066     -0.515455
O       1.66532     13.45308      4.76363         0.338307      0.381598     -1.533036
O      13.56215      2.28236      4.67576         0.468362     -1.229601      0.548495
O      13.81771     13.62333      4.68078        -0.033491      0.199859     -0.093691
O       2.07086      1.84746      8.80932        -0.312270     -0.029460     -1.344549
O       2.07723     13.62327      8.71353        -0.435939     -0.421836      0.395766
O      13.70999      1.95341      8.65317        -0.294008     -0.137932     -0.397247
O      13.50595     13.66633      8.79449         0.074030     -0.247853     -0.579592
O       1.80129      5.66776      0.41446         0.259133      0.781088     -0.458634
O       2.01222      5.99567     12.78970         0.122796     -0.082361     -0.490884
O      13.80935      5.64344      0.60941        -0.367911      0.535284     -0.631847
O      13.50854      5.91030     12.88949        -0.029419     -0.114217     -0.225282
O       2.00895      5.89829      4.74841        -0.073092      0.129043     -0.993755
O      13.48313      5.82605      4.70843         0.181102      0.337728     -0.714093
O       1.56967      5.91937      8.74296         0.590559     -0.260582      0.894067
O      13.58949      5.79451      8.83478        -0.060626      0.224008      1.087346
O       2.08175      9.66342      0.42439        -0.277688      0.046489     -0.811602
O       1.94477      9.92581     12.99463         0.083955     -0.412436     -0.488119
O      13.82962      9.83255      0.28625        -0.731381     -0.250668      0.560907
O      13.84132      9.81473     13.11805        -0.266329     -0.151816     -2.304761
O       1.89031      9.56016      4.58638         0.304314      0.329364      0.433906
O      13.50201      9.64673      4.65364         0.345142      0.069636      0.386588
O       1.83364      9.60580      8.67852         0.409579      0.613273      0.513225
O      13.67902      9.72056      8.59021        -0.296706      0.264687      0.724979
O       5.81144      1.75764      0.47234        -0.209439      0.357488     -0.011698
O       5.87041      1.86259     13.07883        -0.572183     -0.012551     -0.326679
O       5.66645     13.50722      0.55214        -0.212796     -0.055047     -1.796801
O       5.92336     13.74240     12.77906        -0.854693     -0.550876      0.803369
O       5.92848      1.88207      4.53676        -0.367034      0.298323      0.000246
O       6.02693     13.50279      4.53258        -0.498964      0.650210     -0.012184
O       5.80834      1.85307      8.69489         0.016323      0.305407     -0.546409
O       6.06498     13.59145      8.49235        -1.054223      0.185326      1.028220
O       5.55303      5.82342      0.40796         0.280086      0.274284     -0.012758
O       5.63062      5.75856     12.89466         0.037199      0.388697      0.137902
O       5.77379      5.73548      4.58537        -0.105690      0.208059      0.287485
O       5.81559      5.55386      8.71561        -0.128065      0.404217     -1.410659
O       5.89947      9.91312      0.35423         0.012644     -0.490019      0.450886
O       5.69389      9.80944     12.82875         0.149874     -0.383253      0.251673
O       5.95972      9.45222      4.46708        -0.339719      0.582826      1.315980
O       5.94808      9.83479      8.72661        -0.638799     -0.411387     -0.573360
O       9.76032      1.57913      0.59764         0.328820      0.362795     -1.547091
O       9.75363      1.85924     12.95443         0.094957      0.379605      0.438123
O       9.82923     13.62975      0.39251         0.243649      0.040802      0.587046
O       9.78441     13.58475     12.91448        -0.221694     -0.030664      0.076678
O       9.76729      2.22058      4.66718        -0.564666     -0.803159      1.230611
O       9.67248     13.56131      4.45057         0.024335      0.305701      2.009909
O       9.71335      1.69269      8.80602        -0.393325      0.413838     -0.503225
O       9.56922     13.83271      8.84296         0.473155     -0.443504     -0.449618
O       9.77290      5.84402      0.42849        -0.405895      0.128558     -0.710608
O       9.88219      5.80868     13.05341        -0.438861      0.105744     -1.494461
O       9.62579      5.76162      4.55270         0.127181      0.053085      0.169359
O       9.66206      6.08000      8.80065        -0.075235     -0.766280      0.225401
O       9.73281      9.77847      0.50031        -0.014346     -0.346813     -0.667229
O       9.64535      9.65880     12.86084         0.257867      0.257639      0.595499
O       9.67662      9.72276      4.64549         0.406794      0.207788     -0.267869
O       9.51108      9.49780      8.85336         0.744949      0.750466      0.146135
O       3.85849      1.99269      2.52541         0.815453      0.136578      0.085561
O       3.77521      1.93352     15.06908         0.914731     -0.121712     -0.044716
O       3.78798     13.52116      2.74614        -0.091100      0.551702     -0.271046
O       3.84012     13.19905     14.78845         1.313123      1.288781      0.106608
O       0.11913      1.98390      2.54952        -1.239066     -0.451145      0.378594
O      15.58921      1.86143     14.96139         0.454629      0.273986     -0.178774
O       0.04824     13.62497      2.48930        -0.118763      0.603628      0.239221
O       0.02550     13.66149     15.06130        -0.810020      0.492210     -0.414044
O       3.86420      1.86426      6.66279         0.615621      0.114944      0.179542
O       3.94130     13.58156      6.62488         0.342137     -0.078493     -0.222281
O       0.00799      1.79356      6.56758        -0.433373      0.084782      0.428775
O      15.53199     13.58810      6.96105         0.697026      0.229131     -0.333228
O       3.93425      1.92674     10.81852        -0.922234     -0.121781      0.309182
O       4.01000     13.59873     10.67121        -1.972671      0.031646      0.466827
O      15.58227      2.10949     10.84100         0.049704     -0.651329     -0.264675
O      15.56107     13.70145     10.79757         0.887061     -0.553301     -0.631734
O       3.86946      5.77355      2.56840        -1.129526     -0.015830      0.122646
O       3.83271      6.03789     14.98519         0.063606     -0.136163     -0.049625
O       0.00621      5.90413      2.71740        -0.619887      0.471635     -0.186429
O      15.54990      5.81673     14.86113         1.365685      0.582236      0.200940
O       3.76952      5.68953      6.80384         1.373364      0.505907      0.035017
O      15.51919      5.56427      6.67461        -0.084936      0.905192     -0.218059
O       3.80094      5.96379     10.59262         0.063724     -0.289807      0.454300
O      15.50045      5.86999     10.99740        -0.828522     -0.080517      0.075323
O       3.96511      9.63818      2.59985        -0.921429      0.648909     -0.229808
O       3.93440      9.79901     14.97632        -0.272848     -0.291497     -0.144567
O      15.60467      9.62787      2.47352        -0.627082     -0.123855     -0.072062
O      15.58874      9.69119     15.08192         0.722890      0.266685      0.282136
O       3.89755      9.58331      6.62841         0.032153      0.270076      0.007240
O      15.58288      9.73214      6.62368        -0.209732      0.431875      0.156224
O       3.86243      9.70172     10.73800        -0.270514      0.032124      0.052765
O      15.53839      9.69435     10.80724         0.816695      0.116508     -0.181252
O       7.84146      1.85922      2.56529        -0.621454     -0.182220     -0.013856
O       7.74789      1.80987     15.13485         0.116969      0.151956     -0.113438
O       7.75752     13.70737      2.32078         0.476128      0.044351      0.662198
O       7.85039     13.69485     14.98353        -0.563483     -0.277764      0.055199
O       7.76603      2.02476      6.78017         0.421023     -0.389558     -0.296965
O       7.80578     13.49654      6.63274        -0.225459      0.793310     -0.613469
O       7.78351      1.82635     10.91434        -0.721258      0.741205     -0.262800
O       7.65337     13.62553     10.85175         1.758672      0.174481     -0.010612
O       7.62695      5.87409      2.44446         1.893356      0.032419     -0.043091
O       7.71435      5.80286     15.00331         0.328044      0.193478      0.173976
O       7.69683      5.83415      6.70957         0.928576     -0.740327     -0.302172
O       7.74777      5.75668     10.96026        -0.028814      0.321739     -0.328995
O       7.85033      9.66083      2.47217        -0.703696      0.047246      0.184095
O       7.89750      9.71613     15.04618        -0.996680     -0.016681     -0.135848
O       7.76360      9.60824      6.67155        -0.392069      0.236646     -0.279726
O       7.73678      9.65617     10.97925        -0.296859      0.553462     -0.079535
O      11.76849      2.04950      2.71623        -0.835462     -0.640060     -0.466959
O      11.73126      2.05773     15.04066         0.151233     -0.472072     -0.028438
O      11.76146     13.74731      2.49732        -0.309626     -0.114408      0.022063
O      11.78190     13.57767     14.98676        -0.477248      0.671568     -0.193748
O      11.68397      1.78077      6.75239        -0.689656      0.832653     -0.123510
O      11.65234     13.69559      6.62235        -0.300743     -0.489582      0.476696
O      11.59752      1.72769     10.71507         1.137794      0.461481      0.264154
O      11.69799     13.56439     10.94400         0.118961      0.488678     -0.849467
O      11.63883      5.65877      2.56870         0.048131      0.450654     -0.141293
O      11.67426      5.62124     15.07390         0.431522      0.984048     -0.023454
O      11.59847      5.94290      6.77652         0.134663     -0.316637     -0.415770
O      11.58555      6.09787     10.94154         0.620296     -1.002509     -0.244371
O      11.70984     10.00362      2.45170        -0.029326     -0.838361     -0.209962
O      11.76223      9.69169     15.05908        -1.374582      0.138415      0.116885
O      11.62945      9.67668      6.75965         0.303288      0.389131     -0.280337
O      11.61394      9.82768     10.89152         0.990618     -0.298368     -0.390516
O       1.86972      4.03148      2.62219         0.718035     -1.398458     -0.021743
O       2.06686      4.01846     14.68518        -0.447884     -1.563127      0.307073
O       2.00114     15.60391      2.36101         0.096592      0.231411      0.478105
O       2.04428     15.57868     15.08819        -0.349774      0.159538     -0.451817
O      13.77144      3.90788      2.58946        -0.105036     -0.238574      0.314918
O      13.82879      3.92203     14.98733        -0.950789     -0.806207     -0.198095
O      13.67883      0.03968      2.66040         0.142516     -0.862633      0.148480
O      13.70501      0.01058     14.81711        -0.193179     -0.316032      0.112007
O       1.88696      3.78098      6.75194         0.277139      0.054096     -0.057409
O       2.07016     15.50289      6.68169        -0.740203      0.309307      0.191492
O      13.51890      3.88168      6.84141         0.034450     -0.089241     -0.253580
O      13.59815     15.57153      6.72025         0.525176      0.693933      0.070010
O       1.92897      3.99168     10.91949         0.148683     -0.560354     -0.192331
O       1.97120     15.48748     10.75553         0.086681      0.914465      0.158456
O      13.36368      3.88682     10.90805         0.949842      0.169542     -0.678494
O      13.75903      0.13400     10.83173        -0.472563     -1.733528     -0.153612
O       2.03052      7.75905      2.43685        -0.160930      0.114651      0.434282
O       1.74461      7.85912     14.91843         0.977052     -0.878510      0.299746
O      13.34425      7.81608      2.34278         0.691851      0.169784      0.225796
O      13.58118      7.76210     15.09616         0.247101     -0.901863      0.166144
O       1.75058      7.83659      6.73263         0.523796     -1.608952     -0.055168
O      13.73928      7.70542      6.79137        -0.330481      1.037552     -0.360098
O       1.83132      7.84477     11.00645         0.380392      0.290601     -0.605720
O      13.59485      7.87871     10.83629         0.046159     -0.290420      0.240204
O       1.89246     11.60286      2.46174         0.271914      0.838023      0.374246
O       1.78645     11.70891     15.19490         0.476965     -0.596424     -0.699170
O      13.68848     11.82034      2.44286         0.185270     -1.342261      0.099209
O      13.66420     11.79857     15.01822         0.347650     -0.850405      0.148335
O       1.97529     11.63238      6.74737        -0.163463     -0.210658      0.205079
O      13.60525     11.65942      6.70624        -0.074192      0.017995      0.481465
O       1.98685     11.62106     10.81729        -0.261239      0.633983     -0.539780
O      13.78337     11.58981     10.77399        -0.773967      1.508991     -0.428069
O       5.95458      3.86059      2.37562        -0.852009     -0.224550      0.490738
O       5.77964      3.90283     15.11395        -0.478723     -0.162897     -0.212518
O       5.71743     15.52520      2.54173        -0.087450      0.645835      0.366517
O       5.76531     15.43182     15.00287        -0.773797      0.714217      0.224848
O       5.87086      3.75638      6.60757        -0.416327      1.522046      0.406149
O       5.91820      0.03637      6.56558         0.017263     -1.853400      0.029198
O       5.83721      3.82261     10.86968        -0.344270      0.307687     -0.157302
O       5.82097     15.58718     10.71154        -0.188619     -0.088071      0.084911
O       5.79597      7.81174      2.43477         0.062178     -0.817711     -0.227777
O       5.89750      7.83717     15.10777        -0.321703      0.088964     -0.504151
O       5.81030      7.62551      6.75348        -0.337535      0.448037     -0.572552
O       5.88571      7.80671     10.64561        -0.579843     -0.956223      0.340792
O       5.79894     11.66863      2.59476         0.179839     -0.904124      0.123639
O       6.11836     11.66473     14.85863        -0.668302     -0.146281      0.113194
O       5.88030     11.53220      6.49986        -0.423188      0.611455      0.058818
O       5.88973     11.72508     10.70424        -0.324963     -0.738995      0.369988
O       9.65912      3.82031      2.27121        -0.330840      0.812593      0.579029
O       9.61999      3.77729     15.22043         0.487125      0.374485     -0.304554
O       9.80173     15.57224      2.72593        -0.306393      0.099928     -0.552770
O       9.85640     15.55482     15.00186         0.066351      0.113215      0.196184
O       9.80250      3.90715      6.89438        -0.526169      0.065975     -0.461191
O       9.64105     15.54041      6.57605        -0.138902      0.703953      0.122505
O       9.73288      3.92850     10.87859         0.176792     -0.785494     -0.182844
O       9.60920     15.56610     11.04251         0.548207     -0.665571     -0.475474
O       9.86984      7.71796      2.42709        -0.293793      0.448629      0.270521
O       9.76234      7.73692     15.02306         0.029047      0.550813      0.104639
O       9.62524      7.79597      6.69124         0.397956     -0.723772     -0.453236
O       9.65686      7.77970     10.95939         0.213228      0.011629      0.367992
O       9.68322     11.77688      2.64279         0.184602     -1.203468     -0.507338
O       9.89544     11.66298     14.94810        -0.563801     -0.424415      0.093649
O       9.68071     11.70352      6.75131         0.531387     -0.391548     -0.242512
O       9.64198     11.67330     10.93627         0.031218      0.549436     -0.383544
