  # total energy = -7881.73388139 
CRSYTAL
PRIMVEC
    15.6080000000000005    0.0000000000000000    0.0000000000000000
     0.0000000000000000   15.6080000000000005    0.0000000000000000
     0.0000000000000000    0.0000000000000000   16.6239999999999988
PRESSURE
-1.17615 -0.701142 -0.794881 -0.286224 0.218664 -0.111668
PRIMCOORD
320 1
Pb       3.97051      3.82372      4.10998        -0.541688      0.074844     -0.153615
Pb       4.05289      3.99261      0.09091        -0.641238     -0.066385     -0.245861
Pb       3.91304     15.60331      3.98417        -0.147896      0.213313      0.175459
Pb       3.83472     15.57008     16.56929         0.273778      0.120625     -0.129189
Pb       0.04660      3.85422      4.11992         0.165384      0.214816      0.006868
Pb      15.57584      3.78244     16.60648        -0.248507      0.665778     -0.244919
Pb      15.56287     15.48901      3.99976         0.476913      0.160342      0.556356
Pb      15.57504     15.58272     16.57511        -0.000324      0.137807     -0.262527
Pb       3.73691      3.75835      8.26666         0.255266      0.073657     -0.151270
Pb       3.83997      0.00051      8.16123         0.797107     -0.579115     -0.054066
Pb      15.46763      3.81913      8.27869         0.555343      0.427700     -0.285549
Pb      15.57750     15.55817      8.21019        -0.204421     -0.150793      0.331629
Pb       3.76723      3.87474     12.49045         1.022996     -0.367964     -0.631420
Pb       3.85067     15.51258     12.51025         0.445851      0.286376     -0.324747
Pb       0.07888      4.00036     12.53332        -0.803665     -0.258525      0.331928
Pb       0.06001      0.18309     12.67759        -0.219425     -0.572235     -0.792911
Pb       3.82732      7.88669      4.08507         0.512799     -0.179815      0.025995
Pb       3.87760      7.76019     16.52778         0.163941      0.248632      0.299042
Pb       0.00089      7.86407      4.18282        -0.046387      0.063973     -0.326866
Pb      15.58008      7.75840     16.52937         0.584666     -0.540341      0.582314
Pb       3.83487      7.71209      8.30159         0.043475      0.016724     -0.864175
Pb      15.30753      7.71012      8.58144         0.903903     -0.118142     -0.330729
Pb       3.94229      7.79001     12.38436        -0.025243      0.230754      0.274087
Pb      15.51200      7.86931     12.53980         0.016967     -0.282052     -0.315709
Pb       3.82569     11.71901      4.01306         0.195379     -0.386204      0.193462
Pb       3.82649     11.73102     16.57778         0.347283     -0.382910     -0.219678
Pb      15.52527     11.64837      4.01917         0.407790     -0.115174     -0.013750
Pb      15.54890     11.75223     16.55567         0.180329     -0.111131     -0.026144
Pb       3.83439     11.77228      8.23563         0.170273     -0.052924     -0.542514
Pb       0.00723     11.65960      8.24193         0.543988      0.023475      0.311858
Pb       3.91935     11.63024     12.34025         0.187016      0.080759      0.272679
Pb       0.13086     11.68083     12.43975        -0.251832      0.225063      0.079644
Pb       7.77323      3.69679      4.16762         0.600061      0.181250     -0.447849
Pb       7.78949      4.01034     16.57402         0.640745     -1.220072      0.372988
Pb       7.71164     15.51890      4.11503         0.668171      0.069587     -0.461848
Pb       7.81492      0.15111      0.02214         0.055650     -0.005808     -0.154121
Pb       7.69573      3.85509      8.38709         0.140102     -0.037110     -0.079465
Pb       7.86704      0.02030      8.22838        -0.659378     -0.597809     -0.005983
Pb       7.79456      3.71061     12.40776        -0.074410      0.384402      0.226193
Pb       7.68564     15.54491     12.44871        -0.044769      0.461192      0.124522
Pb       7.81159      7.84005      4.18334        -0.118857     -0.152099     -0.237260
Pb       7.63606      7.79502     16.58778        -0.209221      0.124340      0.172034
Pb       7.82413      7.71621      8.19828        -0.009268      0.448533      0.010003
Pb       7.72676      7.71688     12.43179        -0.096854      0.148199     -0.276720
Pb       7.87508     11.73878      4.20530         0.440733     -0.132458      0.038396
Pb       7.66467     11.79781     16.56035        -0.084699     -0.331702      0.091682
Pb       7.79035     11.75239      8.25571         0.066140     -0.175784     -0.197251
Pb       7.75729     11.62346     12.39057         0.012007     -0.099503      0.043755
Pb      11.86730      3.78952      4.29937        -0.774112      0.081991     -0.185802
Pb      11.73675      4.04601      0.19152         0.098022     -0.587825     -0.513705
Pb      11.59940     15.44292      4.12059        -0.233879      0.081256     -0.002542
Pb      11.59731     15.53431     16.57805         0.055912      0.163980      0.067588
Pb      11.73754      4.08936      8.46657        -0.463039     -0.072691     -0.662912
Pb      11.69860      0.16587      8.34199         0.462821     -0.443086      0.004512
Pb      11.78134      3.83494     12.52051        -0.594232      0.304513      0.026264
Pb      11.57817      0.05547     12.41598         0.316131     -0.342319     -0.214138
Pb      11.77666      7.79876      4.21837        -0.286880     -0.056799     -0.376457
Pb      11.58969      7.81625     16.62377         0.163336      0.022134     -0.211957
Pb      11.66737      7.80467      8.35643        -0.708308     -0.258925     -0.232288
Pb      11.48936      8.00976     12.59789         0.666572     -0.225852     -0.249563
Pb      11.86249     11.39365      4.19702        -0.798252      0.695408     -0.320173
Pb      11.62200     11.68713     16.52147         0.293202     -0.466704      0.245632
Pb      11.85802     11.91770      8.53130        -0.684630     -0.315327     -0.150930
Pb      11.57652     11.80989     12.41745         0.130227     -0.074916     -0.133903
Ti       1.94762      2.01067      2.14565         0.372580      0.128616      0.584749
Ti       1.98435      2.04119     14.63564        -0.091190     -0.363488      1.674295
Ti       1.95696     13.65982      2.10548        -0.610208      0.065115      0.850206
Ti       1.91739     13.68718     14.59216         0.242178     -1.206979     -0.143591
Ti      13.68824      1.87275      2.28551        -0.383768      0.599294     -0.428970
Ti      13.62431      1.88042     14.60846         0.117715      1.830809      0.901904
Ti      13.61855     13.62890      2.17076        -0.193266     -0.544646     -0.188547
Ti      13.59961     13.61059     14.62206         0.303974     -0.708053     -0.679784
Ti       1.92695      1.75233      6.28680         0.688923      1.504837      0.187245
Ti       1.86306     13.55192      6.30934         1.411636      0.264529      0.335997
Ti      13.64970      1.89681      6.39533        -0.005205     -0.146838     -0.789964
Ti      13.65155     13.55474      6.38633        -0.041382      1.191301     -0.384492
Ti       2.01486      1.87719     10.52849        -0.245482      0.080437      1.256908
Ti       1.96548     13.68041     10.54636        -0.279792      0.161937     -0.494700
Ti      13.74173      1.97645     10.62864        -0.484814     -1.162487     -1.057972
Ti      13.73955     13.71590     10.57963        -0.487949      0.639652      0.381011
Ti       1.88530      5.92598      2.25654         0.157156     -1.171447     -0.572258
Ti       2.06033      5.79812     14.53288        -0.868315      0.955906      2.259768
Ti      13.56771      5.79560      2.27316         0.704987      0.073214     -0.716653
Ti      13.71670      5.82758     14.71481        -0.329473     -1.009914     -0.242316
Ti       2.02239      5.71387      6.33338        -0.692194      0.180359      1.507066
Ti      13.76656      5.86589      6.36817        -0.622623     -0.623660     -0.046114
Ti       1.83490      5.82870     10.57874         0.057807     -0.763560     -1.718132
Ti      13.55927      5.82234     10.62511         0.250910      0.867852      1.066466
Ti       1.98057      9.79244      2.18143         0.122092     -1.033505      0.155018
Ti       1.93943      9.72007     14.71511         0.407787      0.264623      0.246463
Ti      13.62145      9.68606      2.10799         0.113134     -0.196035     -0.329373
Ti      13.72376      9.64560     14.71755        -1.447482      1.036820      0.164091
Ti       1.98037      9.60120      6.32907         0.066253      0.984768     -0.232579
Ti      13.69569      9.73310      6.51547        -0.155412     -0.651323     -1.183902
Ti       1.94393      9.71413     10.44830         0.043973      0.085075      0.660129
Ti      13.71802      9.82663     10.55347        -0.666351     -0.462796      0.534035
Ti       5.88944      1.96911      2.15421        -0.035358     -0.916810      0.668206
Ti       5.80385      1.85785     14.70773         1.244912      0.576186      0.369078
Ti       5.88207     13.54514      2.20605        -0.315305      0.269559     -0.089644
Ti       5.81300     13.62954     14.57896         0.128669     -0.188985     -0.209711
Ti       5.89709      1.85747      6.26982        -1.688245     -0.466208     -0.092125
Ti       5.86561     13.54864      6.23961        -0.266167      0.974327      1.136198
Ti       5.82346      1.96809     10.49692         0.111490     -0.592193      0.030495
Ti       5.84601     13.61515     10.50904        -0.059256      0.422740     -1.120250
Ti       5.80694      5.85610      2.15554         0.019673      0.784396      0.143402
Ti       5.89738      5.71886     14.63764        -0.198297      1.162069      0.502574
Ti       5.83609      5.69671      6.31771        -0.349306      1.231965     -0.311137
Ti       5.72710      5.84302     10.45642         0.850634     -1.131903      2.032438
Ti       5.97539      9.72561      2.25913        -0.969404      0.891207     -0.921534
Ti       5.87912      9.75180     14.59485        -1.071752     -0.302824      0.033338
Ti       5.86635      9.66159      6.31827        -0.086067     -0.223121     -0.643471
Ti       5.81587      9.70805     10.35001         0.800965      0.486942      0.944564
Ti       9.86592      1.90605      2.24293        -0.742953      0.270434      1.645374
Ti       9.83198      1.86497     14.67638        -1.679238      1.097597     -0.664976
Ti       9.77814     13.53291      2.11335        -0.426026      0.000771      0.534864
Ti       9.72403     13.57499     14.67884        -0.636567      0.462347     -0.377187
Ti       9.75052      1.94742      6.45798         0.370836      0.208326     -1.956827
Ti       9.84200     13.59423      6.36588        -0.846041     -0.364112     -1.758707
Ti       9.79138      1.94243     10.49964        -0.146411      0.959527      0.500699
Ti       9.66005     13.71262     10.49961         0.880269     -0.898213     -0.231523
Ti       9.70517      5.78344      2.30165         0.417449     -0.119738     -0.043799
Ti       9.76390      5.79358     14.73456         0.416602     -0.498573      0.145680
Ti       9.76232      5.79186      6.32826         0.119992      0.356745      0.499168
Ti       9.71450      5.83606     10.65426         0.564763     -0.390555     -0.479464
Ti       9.75034      9.70469      2.11049         0.811688      0.078819     -0.229994
Ti       9.69202      9.69166     14.71840         0.301581      0.386375     -0.040735
Ti       9.82616      9.75461      6.40236        -0.453188     -0.391293      0.142017
Ti       9.69574      9.72613     10.51545         0.115736      0.764089     -1.154016
O       1.93157      2.01054      0.36470         0.029623     -0.128555     -0.245430
O       2.04896      1.88529     12.89623        -0.071347      0.147282     -0.324496
O       1.92112     13.57170      0.35856         0.117950      0.614587     -0.361188
O       2.03087     13.51564     12.76840        -0.176817      0.152380      0.914174
O      13.68493      1.84491      0.50597         0.272934      0.067744     -0.609801
O      13.66679      2.11139     12.85132        -0.111729     -0.749616     -0.226393
O      13.68110     13.65277      0.38694        -0.086361      0.419050      0.189931
O      13.55613     13.55485     12.81625        -0.048675      0.127959      1.196915
O       1.99356      1.95433      4.57248        -0.211278     -0.165821     -1.094009
O       1.84242     13.61699      4.57032         0.092803     -0.332270     -1.082655
O      13.64920      1.95417      4.58936         0.092671     -0.265896      0.595986
O      13.71127     13.52148      4.59079        -0.193740      0.079038      0.248401
O       2.13911      1.79815      8.75647        -0.607257      0.203916     -0.024883
O       1.97763     13.89482      8.74065        -0.277816     -0.663325      0.760127
O      13.73072      1.81368      8.77539        -0.023014      0.468822      0.241575
O      13.73823     13.67969      8.72574        -0.166730     -0.290102      0.697859
O       2.00279      5.93373      0.49011        -0.139719     -0.267812     -0.401236
O       2.15456      5.73660     12.79151        -0.457966      0.288689     -0.746818
O      13.68900      5.61634      0.43911        -0.596978      0.559057      0.564657
O      13.75781      5.77615     12.93629        -0.498778      0.072431     -0.655417
O       1.89375      5.78810      4.62540         0.044361      0.018190     -1.533071
O      13.60834      5.87613      4.61204         0.219956     -0.102101     -0.746191
O       1.84928      5.69602      8.71554         0.222505      0.302152      1.145150
O      13.78656      5.73660      8.83096        -0.530864      0.137697     -0.628232
O       1.90809      9.68685      0.43495         0.117481     -0.059970     -0.848426
O       1.76432      9.68596     12.93984         0.553556      0.404074     -0.085043
O      13.49352      9.66879      0.32858         0.302481     -0.103994      0.564564
O      13.67446      9.57420     12.93588         0.523119      0.410990     -0.806695
O       1.91359      9.78134      4.49740         0.183094     -0.346039      0.572364
O      13.58342      9.64896      4.60090         0.159017      0.335899      1.329797
O       2.10301      9.71306      8.70508        -0.381455     -0.276081     -0.058841
O      13.89330      9.87088      8.74887        -0.627227     -0.681262     -0.157044
O       5.86990      1.85659      0.39683        -0.128473      0.133608     -0.836729
O       5.89296      1.94413     12.96353         0.035188     -0.070754     -0.709283
O       5.82378     13.54253      0.43524         0.212029      0.261617     -1.144431
O       5.75968     13.65481     12.77174         0.084217     -0.092970      0.557717
O       5.83815      1.97096      4.43200         0.324956     -0.205927      0.648200
O       5.81342     13.54425      4.47415         0.039289      0.271126     -0.604888
O       5.81214      1.96646      8.71849         0.030042      0.071944     -0.427956
O       5.96469     13.56082      8.70165        -0.011157      0.139023      0.410802
O       5.78642      5.98744      0.31214        -0.071190     -0.756086      1.185522
O       5.94445      5.82460     12.88202        -0.306418      0.208780     -0.536635
O       5.76915      5.85521      4.54708         0.462325     -0.209193     -0.157438
O       5.95221      5.70703      8.76796        -0.280289      0.115100     -1.719584
O       5.99181      9.79660      0.45253         0.117851     -0.027650     -0.476236
O       5.82385      9.75868     12.79243        -0.030049     -0.292898      0.568188
O       5.84374      9.58906      4.43706         0.262415      0.573437      1.399182
O       5.84718      9.82789      8.59136        -0.209876     -0.213756     -0.122501
O       9.77026      1.87628      0.51025         0.227153     -0.564028     -1.599620
O       9.74983      1.89773     12.84461         0.132935     -0.158990      0.221126
O       9.66756     13.59757      0.26608         0.311804      0.113772      0.979453
O       9.85230     13.67243     12.88376        -0.019913     -0.056357     -0.520477
O       9.65050      1.89380      4.53329         0.011313     -0.111951      2.172111
O       9.77317     13.51235      4.46390         0.112251      0.415459      1.790640
O       9.71240      1.99109      8.72300         0.211788     -0.170264     -1.082059
O       9.66968     13.55406      8.71062        -0.048476      0.102105     -0.138118
O       9.98429      5.53782      0.53689        -0.994519      0.929703     -0.716379
O       9.75342      5.79645     13.00215        -0.370343      0.213661     -1.284497
O       9.63409      5.77231      4.56761         0.178983      0.300898     -0.276081
O       9.96331      5.80744      8.87173        -0.686231      0.119652     -0.243017
O       9.89939      9.75352      0.28709        -0.432137     -0.284133      0.350110
O       9.70186      9.82194     12.90830         0.071308     -0.534711     -0.192807
O       9.97664      9.59801      4.59155        -0.354397      0.250545      0.487869
O       9.75830      9.80490      8.71824        -0.179960     -0.254522      0.568111
O       3.86817      1.96597      2.47378         0.404195     -0.416855     -0.009326
O       3.92935      1.94329     15.04176        -0.450904      0.002128     -0.055942
O       3.80771     13.61222      2.49271         0.224958      0.373435     -0.088036
O       3.87639     13.67310     14.95407         0.219462     -0.020591      0.046363
O       0.06678      2.03340      2.56740        -1.218030     -0.173659     -0.173731
O       0.05970      2.02918     14.89528        -0.073920     -0.721269      0.094103
O      15.58534     13.54552      2.51172        -0.195500      0.263372     -0.253132
O       0.03092     13.57226     14.97682        -0.896631      0.600560     -0.344839
O       3.92267      1.73042      6.54538         0.019584      0.760815      0.326909
O       3.90750     13.65405      6.63643         0.263679     -0.517166     -0.072090
O       0.00621      1.81327      6.67125        -0.488280      0.464305      0.059825
O       0.02402     13.54841      6.73470        -1.038136      0.418010     -0.195956
O       3.91107      1.87147     10.92599        -0.756524      0.108500     -0.258755
O       3.94566     13.61864     10.71886        -0.777719      0.164624      0.257564
O       0.03232      1.85896     10.98081        -0.005186      0.144880     -0.570657
O      15.55522     13.70795     10.96228         0.826195     -0.224778     -0.488029
O       3.87903      5.93155      2.46942         0.709445     -0.131511      0.190932
O       3.95970      5.83660     14.97237        -0.485019     -0.333710     -0.256253
O      15.53435      5.70923      2.46703        -0.068252      0.000704      0.589413
O       0.02604      5.67946     14.90933         0.821715      0.888621      0.219690
O       3.90582      5.94262      6.60947         0.388248     -0.813922      0.666407
O       0.04035      5.76426      6.66765        -0.345419      0.110297      0.061285
O       3.87188      5.71585     10.67370        -0.162548      0.364131      0.414899
O      15.55976      5.75197     10.94653         0.327320     -0.228703     -0.166746
O       3.93469      9.64450      2.37618        -0.987707      0.171471      0.557947
O       3.85927      9.77814     14.97754        -0.222241      0.085883     -0.147848
O      15.59378      9.71261      2.50667        -0.877862      0.023823     -0.108281
O      15.60136      9.71933     15.18376         0.101645      0.097534     -0.682195
O       3.92783      9.74435      6.57663         0.538711      0.408661      0.166641
O       0.06902      9.62905      6.65258        -1.069840      0.564294      0.153006
O       3.88919      9.71810     10.89639        -0.712313     -0.308142     -0.432046
O       0.06146      9.68157     10.83942        -0.215495      0.334070     -0.046935
O       7.76859      2.00585      2.49414         0.184945     -0.372815      0.029316
O       7.85015      1.85317     15.02855        -0.265026      0.029564      0.129884
O       7.73999     13.35876      2.54135         0.601730      0.932000     -0.427132
O       7.80361     13.51747     14.74172        -0.543804      0.261758      0.448672
O       7.73974      1.94921      6.71091         1.040706     -0.191563     -0.139787
O       7.88660     13.69898      6.50021        -0.412244     -0.079266      0.400523
O       7.81964      2.03655     10.73763         0.341627     -0.252157      0.212635
O       7.74276     13.73237     10.86289         0.843121     -0.304003      0.086869
O       7.73653      5.84004      2.40624         0.321498     -0.386302      0.197725
O       7.78644      5.78226     15.15713         0.138916      0.485183     -0.604773
O       7.72430      5.96752      6.66376         0.855709     -1.043565     -0.049712
O       7.84955      5.76318     10.86038        -0.708922      0.379980     -0.015892
O       7.94159      9.85458      2.49917        -0.870236     -0.192730      0.352530
O       7.74492      9.75963     14.85105         0.446852      0.112368      0.385650
O       7.85198      9.64833      6.52595        -0.031406      0.037445      0.252228
O       7.70290      9.62011     10.71486         0.343283      0.449970      0.323571
O      11.73098      1.77500      2.56970        -0.099095     -0.369773      0.050059
O      11.70122      1.89348     14.87321         1.040696     -0.541981      0.321310
O      11.66229     13.61545      2.50493         0.793501      0.541676     -0.580436
O      11.70417     13.57649     15.01969         0.522151      0.649567     -0.170793
O      11.68045      1.94383      6.64302        -0.156090      0.091016      0.327760
O      11.73884     13.58387      6.71662         0.119167     -0.162954      0.101943
O      11.73163      1.93355     10.81311        -0.044209     -0.020578      0.185902
O      11.65197     13.57050     10.71606         0.222086     -0.170523      0.126271
O      11.62743      5.79101      2.58495         0.979431      0.346252      0.252766
O      11.70773      5.92124     14.91927        -0.053459     -0.308665      0.577417
O      11.69401      5.87078      6.69643         0.168878     -0.412461      0.157519
O      11.63587      6.00796     10.95435         1.858651     -0.526815      0.015793
O      11.70629      9.63473      2.56465         0.426917      0.163188     -0.279397
O      11.71980      9.52013     14.86947        -0.708369      0.201594      0.216945
O      11.72674      9.66860      6.87038         1.018399      0.257123     -0.505640
O      11.70878      9.73227     10.79263         0.485369      0.167176      0.088551
O       2.02637      3.89650      2.59821        -0.229580      0.133817     -0.205364
O       1.99042      3.95960     14.90795         0.462363     -1.039920     -0.027197
O       1.82909      0.03083      2.42368         0.379301     -0.909431     -0.071764
O       1.97815     15.57209     14.93350        -0.283088      0.513927      0.009310
O      13.42724      3.79900      2.62615         0.870423      0.490326     -0.378463
O      13.74689      3.85285     14.96130        -0.762717     -0.468087      0.321452
O      13.68704     15.58980      2.51501         0.191687     -1.171183      0.232275
O      13.84271     15.60370     14.81771        -0.615103     -0.491006      0.372776
O       2.04773      3.77619      6.65444        -0.194678      0.455230      0.043481
O       1.95423     15.53952      6.47978        -0.314970     -0.833563      0.725290
O      13.64830      3.89756      6.61659         0.187495     -0.558805      0.598145
O      13.55956     15.54138      6.62888         0.512001      0.095133      0.174824
O       1.85758      3.79893     10.99628         0.805852     -0.354371     -0.912722
O       1.90137     15.52431     11.10260         0.427028      0.746997     -0.933784
O      13.60409      3.86659     10.80757        -0.079144      0.454888      0.050256
O      13.56365      0.01887     10.95293         0.356982     -0.518115     -0.135226
O       1.83761      7.74014      2.63278         0.028848      0.956073     -0.005744
O       1.95054      7.75685     14.89896        -0.166689     -0.086501      0.131019
O      13.60875      7.73021      2.41741         0.186171      0.154777      0.265001
O      13.74525      7.77014     14.93279         0.324831     -0.759485      0.599391
O       2.12716      7.81043      6.60059        -0.551785     -0.933131      0.064084
O      13.70199      7.74907      6.69079        -0.069807      0.665092      0.725381
O       1.79144      7.64886     10.84909         0.997151      1.490055     -0.229595
O      13.86493      7.76122     10.75240        -0.502264      0.181384     -0.196281
O       1.95492     11.65242      2.41551        -0.037439      0.733405      0.214285
O       1.85293     11.76577     15.02507         0.485882     -1.080291     -0.294599
O      13.57308     11.66781      2.42138         0.237400     -0.361234      0.246245
O      13.61128     11.65416     15.01552         0.270618      0.304876     -0.319926
O       1.96763     11.68795      6.70227        -0.031927     -0.265025      0.156015
O      13.64490     11.64888      6.78932         0.222770     -0.135340     -0.405117
O       1.92247     11.66992     10.69054         0.022060      0.093043      0.243618
O      13.77656     11.66988     10.88368        -0.381290      0.057770     -0.337587
O       5.79556      3.89276      2.32474        -0.266796      0.802327      0.212945
O       5.95442      3.87496     14.95422        -0.596996     -0.197964      0.406756
O       5.85989     15.58260      2.41271         0.022250     -0.406635      0.520011
O       5.88536     15.57728     14.90051        -0.225823     -0.830231      0.365018
O       5.77010      3.79618      6.52846         0.224257      0.680994      0.403087
O       5.83282     15.56606      6.58215         0.813281     -0.024211     -0.123448
O       5.81823      3.82803     10.85780         0.088374      0.851100      0.065186
O       5.93078      0.06924     10.87238        -0.397814     -0.957079     -0.130632
O       5.94058      7.90798      2.44851         0.213937     -2.336203      0.126881
O       5.76954      7.83285     15.00967         0.631035      0.038543     -0.603237
O       5.87790      7.77869      6.70479        -0.369323      0.327843      0.071311
O       5.73609      7.77874     10.77610         0.175777     -0.573720     -0.150177
O       5.70788     11.67078      2.37307        -0.034110      0.064861      0.955368
O       5.79086     11.70713     14.87802         0.014135      0.117387      0.216456
O       6.01845     11.71624      6.52725        -0.417162     -0.738283      0.173868
O       5.86147     11.63974     10.75714        -0.055462      0.437962      0.129364
O       9.90919      3.76843      2.54495        -0.677638      0.574132      0.320566
O       9.73931      3.77913     15.00405         0.084976      0.732534      0.083818
O       9.63358     15.44588      2.53974         0.079494      0.437110     -0.238087
O       9.76565     15.53190     14.97341         0.242484      0.151760      0.332172
O       9.69025      3.90052      6.71404        -0.031477     -0.365065      0.015188
O       9.85719     15.55049      6.75297        -0.401471      0.770688     -0.192152
O       9.91116      3.88604     10.82338        -0.354888      0.118600      0.280730
O       9.82839      0.02755     10.66973        -0.371572     -0.591144      0.425271
O       9.70373      7.76900      2.35761         0.023031     -0.313368      0.274995
O       9.53975      7.71900     15.02417         0.764336      0.555370     -0.059708
O       9.82018      7.74476      6.81172        -0.250969     -0.073686     -0.240617
O       9.70481      7.89055     10.90751        -0.096903     -1.015992      0.180298
O       9.83770     11.65264      2.37056         0.173245     -0.195401      0.220002
O       9.80231     11.64183     14.94589         0.057848     -0.004004     -0.045204
O       9.78249     11.65744      6.55177        -0.066589      0.153553      0.369331
O       9.62988     11.73144     10.84713         0.010952     -0.339471      0.062030
