  # total energy = -7882.09837168 
CRSYTAL
PRIMVEC
    15.6080000000000005    0.0000000000000000    0.0000000000000000
     0.0000000000000000   15.6080000000000005    0.0000000000000000
     0.0000000000000000    0.0000000000000000   16.6239999999999988
PRESSURE
-0.15871 -0.744076 0.135596 -0.051595 -0.061052 -0.024822
PRIMCOORD
320 1
Pb       3.79779      3.81391      4.07684         0.067216     -0.084436      0.242893
Pb       3.75719      3.75925      0.02572         0.458897      0.409029     -0.108129
Pb       3.91435     15.46631      4.27182         0.021323      0.274279     -0.263640
Pb       3.94839     15.55558      0.09446        -0.034519      0.136197     -0.467165
Pb      15.51955      3.83677      4.15160        -0.005449      0.281808     -0.174972
Pb      15.55391      3.93948     16.57041        -0.001277      0.068581     -0.221304
Pb       0.12445      0.00527      4.22825        -0.345729     -0.012607      0.287663
Pb       0.02651     15.54152      0.01446        -0.147776      0.122462     -0.352095
Pb       3.99990      4.02859      8.33626         0.030881     -0.512402      0.334158
Pb       3.89075      0.11985      8.50201         0.536363     -0.169082     -0.525296
Pb       0.08012      3.92361      8.22043        -0.092416      0.159749      0.048536
Pb       0.06729      0.08656      8.30472         0.047067     -0.431378     -0.021313
Pb       3.91680      3.97836     12.33345        -0.371636     -0.602852      0.885281
Pb       3.88483      0.01785     12.31473        -0.259939      0.151715      0.438898
Pb      15.51711      3.73214     12.23163         0.071508      0.768998      0.750505
Pb      15.44332     15.59858     12.36427         0.525327     -0.134637      0.156201
Pb       3.88184      7.70986      4.24269        -0.553020     -0.017942     -0.769342
Pb       3.81063      7.82356     16.61218         0.100575     -0.707516      0.143347
Pb      15.55422      7.78908      4.07838        -0.178894      0.110094     -0.306977
Pb       0.02342      7.79595      0.02132        -0.299113      0.022285     -0.064263
Pb       4.02564      7.84284      8.23767        -0.246451      0.200458      0.056790
Pb       0.12594      7.85519      8.09374        -0.672090     -0.112654      0.558942
Pb       3.75212      7.85547     12.51657         0.523928     -0.626986      0.396854
Pb       0.01659      7.75650     12.39569        -0.827435     -0.167664      0.746970
Pb       3.98530     11.64008      4.26011        -0.137339      0.362917     -0.438789
Pb       3.90194     11.65169     16.54378         0.101885     -0.041299      0.360173
Pb       0.06601     11.77160      4.20930        -0.271924     -0.185035      0.050290
Pb       0.05298     11.71457      0.04801        -0.180061     -0.348809     -0.318299
Pb       3.89411     11.51933      8.25676        -0.174339      0.565201      0.462315
Pb      15.47396     11.72159      8.36576         0.520186      0.263515     -0.626774
Pb       3.77801     11.79335     12.59409        -0.188812     -0.029396     -0.513015
Pb      15.43159     11.61686     12.38735         0.157772      0.045609      0.428549
Pb       7.78120      4.02998      4.10945         0.138645     -0.835490     -0.067079
Pb       7.65276      3.67683      0.06500         0.209793      0.194273     -0.166382
Pb       7.76294      0.02342      4.10322         0.208223      0.141090      0.182790
Pb       7.80093     15.38873     16.59918        -0.239426      0.802709      0.123246
Pb       7.80177      3.98645      8.16090        -0.065516     -0.510160      0.435119
Pb       7.75834     15.53889      8.43542        -0.338839      0.215719     -0.513877
Pb       7.75553      4.16068     12.44802        -0.017887     -1.507896      0.316471
Pb       7.84059      0.13155     12.47344         0.256938     -0.460689      0.427266
Pb       7.62476      7.78196      3.99428         0.823032     -0.356060      0.982461
Pb       7.92769      7.76582     16.56847        -0.762132     -0.185590      0.724517
Pb       7.76055      7.79944      8.43815         0.244527      0.169668     -0.031234
Pb       7.76303      7.87911     12.57418         0.096720     -0.156905     -0.306664
Pb       7.73006     11.72121      4.10130        -0.229843      0.145604     -0.189078
Pb       7.85800     11.50006      0.00990        -0.248912      0.224957     -0.019896
Pb       7.62370     11.61421      8.39022         0.781769      0.140076      0.326067
Pb       7.70257     11.69089     12.54923         0.366627      0.214812     -0.433292
Pb      11.59542      4.03650      4.09641         0.445516     -0.232842      0.231415
Pb      11.69023      3.71757     16.38751         0.037928      0.545156      0.890002
Pb      11.91352      0.22806      4.20851        -0.456521     -0.001364     -0.039181
Pb      11.73458     15.55301      0.04964         0.117606      0.576290     -0.761296
Pb      11.69775      3.71690      8.13799        -0.311449      0.357342     -0.080301
Pb      11.64937     15.39829      8.22827        -0.119673      0.275718     -0.049697
Pb      11.57281      3.91887     12.40226         0.604819     -0.650406      0.276189
Pb      11.89165     15.57797     12.50021        -0.822084     -0.006304      0.090984
Pb      11.69447      7.84561      4.06250         0.400838     -0.131766      0.155884
Pb      11.65188      7.72664     16.55618         0.417847      0.019276      0.320753
Pb      11.72594      7.81176      8.11764        -0.378672     -0.120489      0.168908
Pb      11.86648      7.54436     12.42422        -0.446950      1.196962      0.645281
Pb      11.50984     12.02457      4.18500         0.809984     -1.149692      0.683621
Pb      11.81278     11.78947     16.62189        -0.332186     -0.317822     -0.056159
Pb      11.63001     11.53151      8.10870        -0.187957      0.753174      1.029434
Pb      11.58683     11.57075     12.43524         0.320261      0.198486     -0.357614
Ti       1.89933      1.79461      2.22963         0.702040      0.994743      1.295768
Ti       1.97771      1.87076     14.60705        -0.315287      0.320093     -1.292935
Ti       1.90529     13.59677      2.26748         0.998326     -0.195528      0.588400
Ti       1.95952     13.64259     14.65144        -0.665329      0.492515     -0.365646
Ti      13.68847      1.97593      2.14822        -0.114408     -0.039499     -0.219240
Ti      13.76763      1.93152     14.69823        -1.091338     -0.578919      0.005117
Ti      13.60584     13.66964      2.30136         1.399014     -0.215849      0.230069
Ti      13.67466     13.67187     14.74937        -0.170558      0.483791      0.706618
Ti       2.07108      1.99751      6.47023        -0.588807      0.035620     -0.823951
Ti       2.06036     13.70755      6.47990        -1.326001     -0.615706      0.147698
Ti      13.73669      1.93307      6.42443         0.062964      0.054613     -0.469215
Ti      13.67010     13.65413      6.33171         0.801640     -0.474893      0.938286
Ti       1.91283      2.04023     10.43319         0.802847     -0.386173      1.011787
Ti       1.88623     13.71289     10.53980         0.077230     -0.704765     -1.408046
Ti      13.56563      1.90720     10.37420        -0.031919      0.323799      0.671019
Ti      13.61584     13.56472     10.43350        -0.645399     -0.098330      0.855730
Ti       1.90962      5.79772      2.26671         0.597729      0.487719      0.427541
Ti       1.89900      5.77840     14.69610        -0.289651      0.306016      0.014679
Ti      13.64841      5.85980      2.14712         0.482271      0.685135      0.202978
Ti      13.63423      5.87556     14.63138        -0.402995      0.251590     -0.000555
Ti       1.92211      5.92055      6.32171         0.202444     -1.040114      0.455093
Ti      13.65660      5.82764      6.45444        -0.205181      0.165472     -1.098739
Ti       1.93626      5.90296     10.48601        -0.053665     -0.524273      0.652409
Ti      13.62518      5.80617     10.41050         1.033464     -0.276451     -0.949323
Ti       2.06519      9.79166      2.26844        -1.425985     -0.723453      0.400782
Ti       1.89348      9.74844     14.61965        -0.576997     -0.088394      0.357464
Ti      13.67766      9.82238      2.19583         0.320369     -0.463874     -0.144563
Ti      13.54134      9.82448     14.68954         1.656918     -0.821865     -0.247365
Ti       1.88269      9.86871      6.31938         0.328771     -0.163199     -0.180278
Ti      13.62640      9.77231      6.26382         0.023653     -0.429788     -0.279716
Ti       1.95851      9.76567     10.57076        -0.657988      0.496824     -0.841679
Ti      13.62709      9.63866     10.41128        -0.368810      0.383059      0.879295
Ti       5.83079      1.87995      2.30152         0.056260      0.305139     -0.819873
Ti       5.76829      1.90790     14.67052         0.523415     -0.067861     -0.648061
Ti       5.84520     13.61156      2.20192        -0.631700     -0.526649     -0.662868
Ti       5.81038     13.60803     14.70347         0.363157      0.730395     -0.754433
Ti       5.86590      1.96060      6.43873         0.674383     -0.942975      0.148217
Ti       5.81018     13.58803      6.53785         0.844303      1.163788      0.195219
Ti       5.84295      1.85831     10.60545         0.079885      1.836736     -1.039066
Ti       5.80682     13.53184     10.59889         0.059371      0.398205     -1.428308
Ti       5.82998      5.80024      2.27243        -1.193956     -0.624146     -2.114146
Ti       5.71017      5.82109     14.75268        -0.281438     -0.122218      0.379132
Ti       5.73989      5.82048      6.32284         1.762596     -0.011245      0.011404
Ti       5.85188      5.84078     10.68810        -0.061043     -0.270504     -0.577336
Ti       5.80779      9.63113      2.19945        -0.303115      0.776616     -1.005254
Ti       5.78591      9.63311     14.72450         0.243189      0.419406      0.483456
Ti       5.88703      9.73942      6.30501        -0.210098     -0.585634      0.706268
Ti       5.78267      9.68487     10.64783         1.030402     -0.355332     -0.724856
Ti       9.82072      1.92984      2.17054        -1.030531      0.145826      0.304043
Ti       9.70450      1.87403     14.75443         0.001927     -0.243689      0.409975
Ti       9.76466     13.67832      2.17571        -1.441085      1.000889      0.216960
Ti       9.71649     13.66468     14.70207         0.525690     -0.166891     -0.893536
Ti       9.73543      1.90304      6.24123        -0.577534      0.427256      0.407528
Ti       9.61928     13.66575      6.37397         0.062428     -0.373737      1.227731
Ti       9.72754      1.88834     10.47937        -0.080064     -0.286275     -0.013123
Ti       9.72214     13.62264     10.52385         0.158759     -0.319571      0.674774
Ti       9.80209      5.87468      2.21687        -0.609322     -0.391707     -0.248780
Ti       9.62201      5.74797     14.71183         0.929149     -0.221039      1.217528
Ti       9.70051      5.82634      6.29516         0.372711      0.221657     -0.033309
Ti       9.82091      5.79225     10.47043        -1.721921      0.743067     -0.433006
Ti       9.74871      9.75526      2.33358         0.349488     -0.607263     -1.568063
Ti       9.78436      9.72656     14.77204        -0.298168      0.183138     -0.339124
Ti       9.64867      9.72148      6.28414         0.089837      0.056121      0.348762
Ti       9.74734      9.61245     10.66688        -0.230876      0.063266     -1.543091
O       2.10559      1.80796      0.50325        -0.463009      0.142410     -0.537467
O       1.94938      2.07406     12.76167        -0.202990     -0.955716      1.304958
O       2.02640     13.55824      0.51556        -0.305608     -0.055587     -0.853549
O       1.86667     13.67218     12.84820         0.185225     -0.175499      0.389960
O      13.64108      1.81515      0.36111         0.226322      0.707131      0.939549
O      13.58924      1.83904     12.90804         0.755389      0.076522     -0.333692
O      13.70277     13.57971      0.53533        -0.451513      0.318860     -0.482192
O      13.76118     13.80425     13.03742         0.051857      0.050145     -2.116829
O       1.95562      1.78399      4.67521        -0.204615      0.184527      0.010562
O       2.00348     13.71507      4.68134        -0.224798      0.013793     -0.095530
O      13.73756      2.00680      4.62221        -0.231489     -0.394181     -0.335857
O      13.66783     13.57023      4.57451        -0.357386      0.122221     -0.753432
O       1.91244      1.98951      8.67064         0.276150     -0.349472     -0.529839
O       1.79278     13.62149      8.70203         0.476190     -0.014508      0.675094
O      13.64725      1.95890      8.60479        -0.375400     -0.223386      0.438044
O      13.54475     13.58081      8.68960         0.166748      0.132471     -0.223460
O       1.94558      5.92508      0.50959        -0.315326     -0.479222     -0.990147
O       1.75484      5.91221     12.95043         0.609366     -0.498314     -0.301652
O      13.72742      5.94245      0.37813        -0.164577     -0.263392     -0.112679
O      13.47400      5.80691     12.81064         0.535657     -0.324860      0.677697
O       1.97807      5.91166      4.59272        -0.017652     -0.471751     -1.076142
O      13.72439      5.84359      4.66038        -0.145928     -0.048881     -0.337932
O       1.85962      5.90390      8.74630         0.295998      0.473823     -0.484086
O      13.77688      5.85173      8.58767        -0.561672     -0.176610      1.153255
O       1.93647      9.86924      0.47871         0.376753      0.008243     -0.242994
O       2.04219      9.77485     12.83191        -0.124236     -0.023008      0.244887
O      13.72706      9.80101      0.38413        -0.236713      0.201187     -0.178922
O      13.58875      9.70973     12.93235        -0.260740      0.405828     -0.227625
O       1.96818      9.87797      4.53485        -0.114569     -0.502242      0.793638
O      13.69032      9.62222      4.48651        -0.336590      0.552407      0.272870
O       1.91897      9.70918      8.71632         0.156871     -0.170671      0.751376
O      13.69047      9.72197      8.65201        -0.156998     -0.252646      0.243127
O       5.67110      1.84836      0.45719         0.395196      0.553600      1.054778
O       5.69822      1.84843     12.84448         0.118291     -0.242631      0.775914
O       5.87199     13.62655      0.39273        -0.316641      0.145837      0.198686
O       5.87203     13.72983     12.86015        -0.193576     -0.760582      0.461142
O       5.97836      1.88497      4.69245        -0.303473     -0.094291     -1.268497
O       5.91916     13.55033      4.77067         0.072086      0.131057     -1.151251
O       5.82473      2.08797      8.77658         0.079833     -0.564948      0.698431
O       5.80421     13.51916      8.73365        -0.302955      0.075773      1.372180
O       5.65600      5.81482      0.43039         0.485353     -0.322896      0.741672
O       5.53417      5.79325     12.96760         1.060066      0.228346     -0.322434
O       5.81992      5.87449      4.57475        -0.193439     -0.059148     -0.397833
O       5.84613      5.65334      8.92585         0.078412      0.740759     -1.480099
O       5.85647      9.71374      0.38949        -0.306920     -0.104146      0.267944
O       5.85197      9.57248     12.96477        -0.119594      0.643649     -1.640478
O       5.77859      9.71099      4.54843         0.278616      0.086405     -0.279451
O       5.91798      9.64491      8.79719        -0.543152      0.082749      0.711337
O       9.77783      1.92893      0.37909         0.123424     -0.249794      0.307884
O       9.64925      1.83638     13.02486         0.258647      0.485366     -1.557396
O       9.74749     13.78923      0.41850         0.242959     -0.272441      0.309271
O       9.60956     13.62310     12.90276         0.220567     -0.452070      0.226813
O       9.75528      2.03961      4.47492         0.180789     -0.127887      0.225513
O       9.60366     13.37599      4.62736        -0.244586      0.610308     -0.881572
O       9.76342      1.86779      8.69654         0.088038     -0.068675      0.730422
O       9.83325     13.71104      8.75617        -0.015550      0.447779     -0.456327
O       9.62204      5.91877      0.45735         0.493312     -0.079669     -0.321464
O       9.77761      5.60473     12.95770        -0.052057      0.391290     -0.261649
O       9.81812      5.78834      4.49526        -0.115172     -0.196091      0.394501
O       9.53615      5.91821      8.69053         0.837145     -0.161157      0.504465
O       9.65422      9.62944      0.50337        -0.492478      0.196030      0.051350
O       9.80182      9.72933     12.98770        -0.164559      0.276725     -0.189840
O       9.61103      9.82066      4.50663         0.248640      0.251495     -0.378686
O       9.57601      9.43400      8.85581         0.620089      0.486251      0.507127
O       3.87202      1.82667      2.67534         0.262113      0.002865     -0.264233
O       3.85469      1.83329     15.06971         0.180233      0.074900     -0.412060
O       3.88727     13.69781      2.56833         0.569156      0.352944      0.254183
O       3.86280     13.82456     14.85863         0.706171     -0.898335      0.286615
O      15.59788      1.96867      2.47759        -0.260745     -0.267755      0.131516
O       0.02303      1.88217     15.01534         0.481220      0.162672     -0.043621
O       0.00831     13.54049      2.59903        -0.267733     -0.055840     -0.116869
O      15.58572     13.62231     15.14168         0.963331      0.027630     -0.144181
O       3.92196      1.94986      6.70355        -0.067440     -0.380587      0.350952
O       3.93993     13.59574      6.65186        -0.935441     -0.074774      0.495177
O       0.05043      1.97979      6.71309        -0.142379      0.009418      0.100212
O      15.55843     13.41509      6.63219        -0.005801      0.489746      0.071362
O       3.84543      1.93223     10.74537         0.135505     -0.399151     -0.028286
O       3.81873     13.54536     10.75327         0.298581      0.275527      0.666516
O      15.59692      1.94074     10.64570        -0.659255      0.254101      0.382221
O      15.56856     13.57087     10.76327        -0.712444      0.097197      0.265369
O       3.86474      5.73087      2.61643        -0.037610      0.142774      0.135381
O       3.78246      5.89053     15.09343        -0.193252     -0.136092     -0.250680
O       0.01795      5.84183      2.51282        -0.582339     -0.112757      0.228066
O      15.55308      5.82829     15.03498         0.155362     -0.148699      0.126232
O       3.92742      5.90840      6.68243        -0.479947      0.181854      0.274274
O       0.06488      5.82136      6.61591        -0.364204     -0.014609      0.266017
O       3.90747      5.89241     10.79872        -1.407084      0.445122      0.070607
O      15.49804      5.76646     10.81663         0.934102      0.024509      0.004767
O       3.91057      9.62795      2.60525        -0.018092      0.279752     -0.206381
O       3.89862      9.70787     14.95025        -1.107121      0.139893      0.324642
O      15.56632      9.72818      2.39433         0.794846      0.395647      0.633014
O      15.60175      9.98335     14.82328         0.314552     -0.342176      0.535475
O       3.94615      9.80338      6.60174        -0.586593     -0.482069      0.437434
O      15.55630      9.83377      6.54886         0.793287     -0.308460      0.260579
O       3.89701      9.55712     10.80829        -0.367677      0.204331     -0.068730
O      15.52816      9.75540     10.93893         0.356987     -0.418461     -0.672828
O       7.87876      2.06625      2.42684        -1.238466     -0.244523      0.167739
O       7.71539      2.01364     15.02550        -0.426920     -0.197715      0.095728
O       7.72786     13.70475      2.53442         0.694346     -0.388647      0.025303
O       7.85516     13.63132     15.04322        -1.300850     -0.712524     -0.012944
O       7.81135      2.00533      6.69019         0.195435     -0.231023      0.096394
O       7.72879     13.64159      6.99065         1.291881      0.036628     -0.923097
O       7.78827      1.95750     10.93249        -0.111828     -0.076588     -0.467784
O       7.71424     13.56569     10.73473         0.332843     -0.094623      0.242263
O       7.71741      5.94183      2.48517         0.897614     -1.125949      0.281565
O       7.74363      5.81512     14.95988        -0.157171     -0.024512     -0.265388
O       7.82459      5.76892      6.49234        -0.518233      0.056743      0.419485
O       7.79207      5.83258     10.90811         0.444538     -0.300612      0.226295
O       7.62602      9.59946      2.55968         1.403557      0.674892     -0.210953
O       7.76227      9.65956     14.92284         0.895795      0.497684      0.448657
O       7.76878      9.79956      6.68760         0.648688     -0.263812     -0.221519
O       7.78210      9.69076     10.88319         0.131058      0.314985      0.876447
O      11.74840      1.82767      2.50715         0.443170      0.402415      0.009613
O      11.70855      1.84987     15.00676        -0.158101      0.135964      0.004677
O      11.64507     13.69997      2.61584        -0.105094      0.059921     -0.370258
O      11.70328     13.82527     14.99970        -0.183145     -0.565266      0.329523
O      11.71318      1.82274      6.61830         0.142694      0.269805     -0.004346
O      11.68944     13.60978      6.58011        -0.302066      0.503833      0.014269
O      11.68090      1.80475     10.85848        -0.088364      0.389885     -0.512758
O      11.72373     13.74643     10.90140         0.094501     -0.289607     -0.184231
O      11.75801      5.98570      2.56330        -0.495523     -0.579323     -0.397549
O      11.68367      5.90344     14.99075        -0.125891     -0.683408      0.060083
O      11.68553      5.81507      6.65172         0.012708     -0.133516      0.250130
O      11.68174      5.85520     10.79607        -0.030349     -0.419921     -0.466625
O      11.62180      9.64418      2.33480        -0.150910      0.367287      0.826148
O      11.71372      9.85634     15.08606        -1.005486     -0.581689      0.125798
O      11.65632      9.76089      6.59381        -0.219976     -0.298926     -0.047293
O      11.71131      9.70969     10.87232        -0.197306     -0.432327     -0.305676
O       1.89459      3.79617      2.62619         0.241332      0.167195     -0.400432
O       1.90667      3.80306     14.95544         0.105341      0.596514      0.638446
O       1.78653     15.49493      2.62036         0.626726      0.762374     -0.448625
O       1.96443     15.59621     15.04381        -0.618924     -0.349870     -0.220807
O      13.65646      3.93807      2.43042        -0.049011     -0.728767      0.099165
O      13.68647      3.86061     14.94019        -0.038300      0.197995      0.230923
O      13.71729     15.59951      2.56597        -0.156219     -0.096889      0.065034
O      13.69698      0.03161     15.08872         0.186013     -0.574937      0.130803
O       2.06394      3.90007      6.76583        -0.380479      0.472700     -0.493900
O       1.94665     15.57613      6.81012         0.046079      0.206336     -0.023739
O      13.72260      3.87014      6.65846        -0.373938     -0.059233      0.295883
O      13.89336     15.57814      6.63491        -0.969249     -0.421643     -0.088296
O       2.06133      3.92682     10.71797        -0.925383      0.400392     -0.041950
O       1.93067     15.58642     10.69769        -0.074967      0.302147      0.171426
O      13.54165      3.87427     10.76930        -0.015383     -0.755024     -0.199097
O      13.68956      0.00273     10.78922         0.056462     -0.308858     -0.239101
O       2.00864      7.76974      2.54349        -0.194101      0.578449      0.174012
O       1.81746      7.80934     14.97552         0.280835      0.658316      0.085835
O      13.70066      7.79149      2.48322        -0.099910      0.083160      0.171454
O      13.62289      7.79449     14.79559         0.119475      0.123327      0.806257
O       1.93288      7.78585      6.52691         0.242926      1.331797      0.534786
O      13.65051      7.79381      6.67918         0.104596      0.408072     -0.146562
O       1.86349      7.77827     11.06127         0.155879      0.073458     -1.406531
O      13.63604      7.69630     10.77900        -0.083407      0.825795     -0.129173
O       2.12525     11.69498      2.77458        -0.715416     -0.017702     -1.013356
O       2.07784     11.72262     14.93913        -0.016937      0.169748     -0.028520
O      13.61782     11.71353      2.56266        -0.411645     -0.030417     -0.058827
O      13.52487     11.78761     14.90641         0.075718     -0.543586      0.502056
O       1.95536     11.72161      6.70687         0.341304     -0.746661     -0.013758
O      13.55496     11.62556      6.77893         0.249133      0.424833     -0.847251
O       1.92400     11.62449     10.84159         0.218856     -0.191811      0.091488
O      13.54683     11.61550     10.87905         0.344782      0.853698     -0.417174
O       5.82891      3.83563      2.68122        -0.065401     -0.153154     -0.462253
O       5.66753      3.87205     14.90768         0.218769     -0.346099      0.599661
O       5.90114     15.58741      2.60398        -0.225928      0.095940     -0.039294
O       5.95220     15.55211     15.04870        -0.467714      0.138743     -0.182798
O       5.75290      3.88831      6.64808         0.292749      0.993803      0.136228
O       5.82719     15.60639      6.82733         0.006364     -0.197144      0.204515
O       5.75096      3.87071     10.96888         0.531923     -0.020542      0.032330
O       5.72788     15.58116     10.75017         0.278752     -0.456755     -0.142656
O       5.80414      7.66527      2.49254        -0.687572      1.452373      0.315739
O       5.72241      7.77589     14.93665         0.309383     -0.769776      0.529665
O       5.90646      7.79579      6.71248        -0.402529     -0.295396     -0.036533
O       6.02275      7.72820     10.94996        -0.835675      0.805654     -0.222063
O       5.74348     11.67009      2.39176         0.324618      0.013979      0.682445
O       5.77172     11.65631     14.93232         0.164134      0.850267     -0.084795
O       5.90591     11.63373      6.76633        -0.401104     -0.134178     -0.204684
O       5.76413     11.61286     10.87500         0.090209     -0.038914      0.467358
O       9.86717      3.90882      2.47445        -0.040585      0.430946     -0.040120
O       9.71232      3.80942     15.15885         0.006882      1.300113     -0.594051
O       9.66285      0.06004      2.59416         0.389223     -1.312582     -0.189013
O       9.63448     15.57055     14.93212         0.026186      0.061455      0.582455
O       9.73683      3.84755      6.62638         0.627508      0.580686      0.091209
O       9.68531      0.00513      6.44534         0.043462     -0.946686      0.572521
O       9.77499      3.87121     10.79989         0.048974     -0.177867     -0.075968
O       9.63355     15.55154     10.86431         0.046530      0.586506     -0.239987
O       9.68737      7.70814      2.62265         0.025478      1.489821     -0.053471
O       9.75742      7.76417     15.13393         0.022736      0.202243     -0.982567
O       9.82013      7.84455      6.54629        -0.453234     -0.441179     -0.028622
O       9.70990      7.67837     11.02856         0.133139      0.298168     -0.239373
O       9.56473     11.72870      2.34688         0.455577     -0.219523      0.517653
O       9.79803     11.70195     15.17128        -0.216943     -0.519981     -0.372190
O       9.74973     11.76833      6.76722        -0.476340     -1.213528     -0.362793
O       9.81374     11.67445     10.74153        -0.256427     -0.261302      0.655263
