  # total energy = -7882.81104582 
CRSYTAL
PRIMVEC
    15.6080000000000005    0.0000000000000000    0.0000000000000000
     0.0000000000000000   15.6080000000000005    0.0000000000000000
     0.0000000000000000    0.0000000000000000   16.6239999999999988
PRESSURE
-1.24531 -1.50167 -1.56543 -0.224785 0.315183 -0.109101
PRIMCOORD
320 1
Pb       3.99225      3.84622      4.11353        -0.330269      0.377335     -0.275634
Pb       4.07510      4.01479      0.12193        -0.653975     -0.184760     -0.347615
Pb       3.91143      0.01712      3.97438        -0.254841     -0.428835      0.155339
Pb       3.80518     15.57067     16.57999         0.280736     -0.037356     -0.312402
Pb       0.06031      3.83987      4.15042         0.036464      0.366344     -0.084478
Pb      15.55628      3.78263     16.60195         0.140108      0.149128      0.012599
Pb      15.55642     15.49075      3.99494         0.368702      0.014886      0.571368
Pb      15.56729     15.57719     16.57836        -0.453093      0.073275     -0.725011
Pb       3.69370      3.73997      8.29001         0.339158      0.328750      0.205693
Pb       3.84951      0.02471      8.17592        -0.000950     -0.241333      0.594690
Pb      15.46663      3.81147      8.28493         0.257289     -0.106668      0.157553
Pb       0.00164     15.56166      8.21526         0.083885      0.101032      0.246590
Pb       3.78349      3.88926     12.49239         0.386159     -0.118198     -0.552917
Pb       3.84063     15.47400     12.48035         0.018056      0.826519     -0.504730
Pb       0.07389      3.96489     12.52506        -0.621582     -0.171631     -0.417869
Pb       0.04591      0.22551     12.69655        -0.076907     -0.645065     -0.832330
Pb       3.80855      7.89807      4.13569         0.425954     -0.531227      0.052939
Pb       3.86057      7.75580     16.54145         0.218456     -0.057419     -0.275332
Pb       0.06260      7.87951      4.21606        -0.482353     -0.070072     -0.212068
Pb      15.59872      7.75598     16.55608         0.112571      0.052942      0.034881
Pb       3.87198      7.69499      8.28396         0.013412      0.067234     -0.208667
Pb      15.29505      7.71183      8.60981         0.564635      0.350185     -0.305743
Pb       3.94038      7.82164     12.40098        -0.368673     -0.460843     -0.292846
Pb      15.51729      7.90781     12.57558         0.469265     -0.120922     -0.875686
Pb       3.81750     11.70949      4.01760         0.090177      0.242063      0.483026
Pb       3.84022     11.71602     16.54731        -0.024769     -0.010275     -0.160293
Pb      15.53702     11.66091      4.02270        -0.149144     -0.205895      0.071698
Pb      15.54876     11.78406     16.56537         0.061258     -0.165943     -0.173357
Pb       3.82488     11.75523      8.17765         0.387418     -0.488197      0.195356
Pb      15.60634     11.63872      8.25289        -0.075769     -0.010589      0.330259
Pb       3.95235     11.62827     12.32859        -0.146911      0.161027     -0.151638
Pb       0.16264     11.64882     12.41893        -0.294888      0.243850     -0.726580
Pb       7.78468      3.67363      4.17771         0.347354      0.742142      0.288232
Pb       7.79408      4.01164     16.60622         0.334409     -0.494525      0.342618
Pb       7.70538     15.48984      4.08601         0.367583      0.098190      0.034469
Pb       7.83358      0.16657      0.05487         0.028419     -0.030909     -0.148659
Pb       7.64816      3.88144      8.39742         0.476348      0.171225     -0.680043
Pb       7.88127      0.00187      8.25823         0.067595     -0.407616     -0.563570
Pb       7.76133      3.70486     12.41947        -0.089674      0.629983     -0.062113
Pb       7.67033     15.54429     12.49484        -0.122477     -0.052269     -0.565427
Pb       7.78386      7.84054      4.18440         0.082343     -0.086848     -0.210161
Pb       7.65248      7.85336     16.58815         0.298349     -0.175209     -0.218036
Pb       7.83599      7.72118      8.20364        -0.533553     -0.089359      0.083102
Pb       7.74540      7.67335     12.44263         0.131238      0.083996     -0.707808
Pb       7.91255     11.74627      4.24390        -0.148420     -0.407311     -0.276342
Pb       7.63504     11.77832     16.57322         0.416524     -0.191420     -0.396251
Pb       7.74651     11.75244      8.21690        -0.126583      0.180077      0.041036
Pb       7.74813     11.56955     12.39276        -0.294065      0.140093      0.012790
Pb      11.87749      3.80263      4.35140        -0.369086      0.432584     -0.582304
Pb      11.76833      4.06540      0.20120        -0.418219     -0.239398     -0.113014
Pb      11.58491     15.43593      4.14670         0.033096      0.210011     -0.249768
Pb      11.58334     15.51550     16.61124         0.658150      0.293683     -0.015768
Pb      11.73732      4.12311      8.48307         0.058422     -0.531742     -0.780429
Pb      11.67780      0.17225      8.33902        -0.119664     -0.165463     -0.506200
Pb      11.79424      3.82843     12.58164         0.161781      0.014130     -0.798814
Pb      11.62990      0.02770     12.42855         0.266320     -0.073815     -0.347097
Pb      11.77709      7.73185      4.19657        -0.003848     -0.281159     -0.400090
Pb      11.54793      7.82088      0.01381        -0.053241     -0.563806     -0.193121
Pb      11.63139      7.84316      8.34385         0.408566     -0.265993     -0.314708
Pb      11.45953      8.01268     12.64512         0.302434     -0.208779     -0.534354
Pb      11.82786     11.34128      4.22270        -0.045934      0.695181     -0.193543
Pb      11.67169     11.70701     16.52096        -0.198762      0.176685      0.069561
Pb      11.90903     11.94434      8.53749        -0.127965     -0.499989     -0.459994
Pb      11.56510     11.85410     12.40031         0.171050     -0.382355     -0.046557
Ti       1.94153      1.97896      2.11520         0.172436      0.282316      0.127076
Ti       1.97482      1.99291     14.71396        -0.264475     -0.187399     -0.065050
Ti       1.91629     13.64452      2.10352        -0.005601     -0.116170      0.121023
Ti       1.93948     13.62487     14.62532        -0.046221     -0.208465      1.418562
Ti      13.68452      1.86443      2.19666        -1.493844      0.575113     -0.434463
Ti      13.52337      1.93752     14.66024         1.316051     -0.766127      0.223213
Ti      13.60732     13.66757      2.18080        -0.498224     -1.659842     -0.112005
Ti      13.62497     13.59611     14.56049        -0.053239      1.130382      1.247383
Ti       1.99050      1.84829      6.20296        -1.049645      0.625575     -0.023185
Ti       1.93842     13.59251      6.35581        -0.702853     -0.098824     -1.180896
Ti      13.64652      1.90041      6.32418        -0.017817     -0.209313      0.491953
Ti      13.64515     13.62148      6.33135         0.048541     -0.382384      0.434877
Ti       1.97156      1.92612     10.54850         0.098339     -1.000151     -0.464000
Ti       1.97014     13.71583     10.54898        -1.518492     -0.220739      0.001704
Ti      13.71382      1.86236     10.59704         0.088179      0.819470     -0.490981
Ti      13.77198     13.67845     10.56899         0.617815     -0.295061      0.791674
Ti       1.90390      5.87985      2.25495         0.007497     -0.542814     -0.182297
Ti       2.01881      5.75532     14.67908         0.319515      0.213818     -0.763581
Ti      13.61014      5.78178      2.20720         0.149951      0.371037      0.411820
Ti      13.71828      5.82155     14.70272        -0.538291     -0.192832     -0.914879
Ti       2.02655      5.78317      6.36530        -0.486019      0.241167     -1.177051
Ti      13.82984      5.79287      6.36802        -1.348442      0.558894     -0.193455
Ti       1.85030      5.78719     10.46719         1.095213      0.712196      0.976695
Ti      13.58044      5.82155     10.63903         1.814952     -0.325955     -0.554100
Ti       1.95926      9.75978      2.13019        -0.876415     -0.268344     -0.428019
Ti       1.94451      9.70620     14.70467        -0.065979      0.470157     -0.409387
Ti      13.60948      9.65828      2.03574         0.579290      0.226193      0.510890
Ti      13.66261      9.75271     14.62389        -0.199532     -0.625847     -0.104898
Ti       1.96119      9.65725      6.30081        -0.507140      0.261729      1.014109
Ti      13.66259      9.70562      6.47787         0.348811      0.087026      1.459660
Ti       1.98521      9.68142     10.47584        -1.073077     -0.239801     -0.426709
Ti      13.65432      9.76731     10.55109         0.532220      0.428585     -0.304390
Ti       5.87160      1.91950      2.18464        -0.329788      0.303352     -0.924617
Ti       5.79013      1.92619     14.75406        -0.056931     -0.262799     -0.718606
Ti       5.81086     13.58301      2.08734        -0.083804      0.482036      0.381415
Ti       5.80350     13.66041     14.55430         0.225367     -0.068788      0.759148
Ti       5.83959      1.90124      6.32312         0.945498      0.125343     -0.090088
Ti       5.81491     13.65500      6.21673         0.741725     -0.478600      0.384343
Ti       5.87201      1.92513     10.47643        -1.212588     -0.240017      0.289955
Ti       5.85172     13.66945     10.45063         0.120824     -0.426858     -0.517209
Ti       5.82711      5.87917      2.19256         0.229427      0.032630      1.133783
Ti       5.91200      5.79193     14.55674        -0.722549      0.793353     -0.099821
Ti       5.87670      5.72554      6.34118         0.060791      0.724106      0.504366
Ti       5.80568      5.78288     10.41313         0.093930      0.233448     -0.243167
Ti       5.84811      9.77348      2.16839         0.582873     -0.384366      0.282813
Ti       5.81712      9.80418     14.60173         0.408706     -0.467614      0.589789
Ti       5.83936      9.70028      6.32360        -0.014863      0.449755      0.513640
Ti       5.80208      9.70051     10.33132         0.842169      0.187374      0.136838
Ti       9.76843      1.90244      2.29902         0.558480     -0.050612     -1.693163
Ti       9.71281      1.89159     14.57898         0.237526      0.541061      0.635873
Ti       9.71725     13.54117      2.11477         0.543159     -0.038380     -0.145646
Ti       9.70413     13.62528     14.63985        -0.231337     -0.482232     -0.139486
Ti       9.73320      1.94306      6.38183         0.157649      0.338464      1.779014
Ti       9.81710     13.54796      6.29805        -0.311597      0.714984      2.753939
Ti       9.79833      1.99867     10.45239         0.346657     -0.577784     -0.516362
Ti       9.74084     13.66763     10.49389        -0.401893      0.270293     -0.054704
Ti       9.66644      5.77880      2.32977         0.879147      0.274138     -0.549856
Ti       9.77607      5.75268     14.62961         0.053733      0.769196     -0.199735
Ti       9.79794      5.81031      6.34694        -0.008045     -1.532474     -0.698491
Ti       9.81178      5.84081     10.54274        -1.079785      0.010075      0.400059
Ti       9.76051      9.72311      2.14969        -0.490089     -0.108065      0.197216
Ti       9.72042      9.70015     14.71446        -0.799675      0.549884     -0.827923
Ti       9.76533      9.72552      6.40264         0.324474      0.165804      0.459928
Ti       9.70211      9.77895     10.45692        -0.142545     -0.093606      1.332214
O       1.94001      2.03274      0.33452        -0.064486     -0.513941      0.455446
O       2.03682      1.89903     12.90015        -0.196174      0.478877      0.482482
O       1.96946     13.55237      0.31925        -0.282742      0.463198      0.204157
O       2.09328     13.48142     12.90126        -0.265997      0.226902     -0.622980
O      13.62654      1.81915      0.39430        -0.105309      0.160384      0.105781
O      13.61209      1.98076     12.85181         0.074482     -0.044198      0.185254
O      13.64972     13.68414      0.42881         0.320169     -0.288967     -0.759127
O      13.48684     13.55299     12.85311        -0.175621     -0.014334     -1.160875
O       1.99824      2.04200      4.39144        -0.327479     -0.576400      0.839376
O       1.97825     13.61082      4.54082        -0.306182     -0.045896      0.753773
O      13.72968      1.93669      4.56242        -0.379064     -0.008952     -0.777481
O      13.66339     13.49751      4.55283        -0.062425      0.301179     -0.337031
O       2.05872      1.73228      8.70825         0.001825      0.458439      0.310815
O       1.81883     13.77941      8.77229         0.313735     -0.146939     -0.553407
O      13.76622      1.88554      8.78332        -0.097377     -0.170044     -0.055917
O      13.79846     13.62343      8.78523        -0.181131      0.215744     -0.325553
O       2.05244      5.84816      0.44964         0.014462      0.478092      0.162562
O       2.09934      5.66134     12.84179        -0.486816      0.078758      0.795778
O      13.62622      5.69760      0.38549        -0.241594      0.243318     -0.255198
O      13.78215      5.70954     12.85090        -0.107493      0.389576      0.813507
O       1.87746      5.82084      4.50536         0.225044     -0.283858      0.724879
O      13.70007      5.78679      4.55888         0.169361     -0.101411      0.319509
O       1.90410      5.82613      8.71052         0.347252      0.015491     -1.036781
O      13.70267      5.74446      8.74494         0.158741     -0.089961      0.154438
O       1.97318      9.61035      0.34074        -0.182822      0.099188      0.391960
O       1.86006      9.73081     12.90593         0.287418      0.207721      0.178604
O      13.47353      9.62349      0.26656         0.318848      0.159485     -0.206607
O      13.68324      9.54406     12.77981        -0.015724      0.415826      0.917462
O       1.87780      9.76658      4.51909         0.250529     -0.060395     -0.422544
O      13.61262      9.64741      4.73378        -0.252180      0.212348     -1.730576
O       2.14323      9.51133      8.70274        -0.340066      0.563312     -0.199412
O      13.81748      9.78604      8.73957        -0.346498     -0.450956      0.022388
O       5.85947      1.88120      0.33488         0.226627     -0.118222      0.776088
O       5.96652      1.94308     12.92799         0.073849     -0.067813      0.393746
O       5.82941     13.63679      0.27960         0.151198     -0.036030      1.165028
O       5.72687     13.67803     12.77262         0.189998     -0.194255     -0.172715
O       5.89120      2.00224      4.48138        -0.269091     -0.264692      0.239814
O       5.74819     13.64645      4.38337         0.281697     -0.102454      1.280518
O       5.75370      2.01244      8.68500         0.137775     -0.351170      0.343624
O       5.95142     13.52807      8.66813        -0.243152      0.583376      0.033407
O       5.80958      5.78268      0.42646         0.022376      0.432414     -0.989508
O       5.90707      5.91634     12.75323         0.068955     -0.418107      0.772451
O       5.87314      5.80643      4.56491         0.228861     -0.130391     -0.345003
O       5.91952      5.81898      8.56870        -0.305616     -0.243526      1.475180
O       5.99943      9.70225      0.38256        -0.662934      0.114006      0.408671
O       5.87005      9.84592     12.84560        -0.294926     -0.335638     -0.408887
O       5.87469      9.69057      4.54538         0.033765      0.159358     -1.031281
O       5.84256      9.81659      8.55453        -0.236425     -0.103559      0.695440
O       9.71006      1.88164      0.41841         0.324617     -0.109358      1.237542
O       9.68753      1.89152     12.77381         0.146659     -0.221854      0.482387
O       9.60950     13.41825      0.32298         0.355391      0.656979     -0.087468
O       9.88017     13.74263     12.83585        -0.074644     -0.088410      0.337902
O       9.54042      1.69631      4.67801         0.279726      0.403094     -2.679732
O       9.85792     13.52758      4.59925        -0.151001      0.400264     -2.419147
O       9.73149      1.90676      8.63844         0.103805      0.335842      0.860051
O       9.72769     13.45487      8.74634        -0.235203      0.124469     -0.560545
O       9.97100      5.69480      0.45483        -0.454677     -0.190165      0.370047
O       9.65072      5.91371     12.81069         0.436903      0.129552      0.918567
O       9.61681      5.73173      4.51154         0.494451      0.657062      0.518183
O       9.92064      5.70462      8.76877        -0.295775      0.384568     -0.135599
O       9.76167      9.80208      0.35119         0.294116     -0.305094      0.100043
O       9.76027      9.68524     12.84900        -0.074997     -0.341471      0.414797
O       9.85134      9.53148      4.64359         0.118665      0.305659     -0.827602
O       9.68870      9.88668      8.74166         0.219649     -0.388077     -0.923010
O       3.90995      1.86746      2.40656        -0.358476      0.069192      0.001512
O       3.86093      1.90677     15.04848         1.398617     -0.441260     -0.117343
O       3.78952     13.74207      2.48294         0.871586      0.075262     -0.437548
O       3.91774     13.60899     14.95375        -0.755528      0.109246      0.105529
O      15.50266      2.03570      2.39116         1.375416     -0.145518      0.306702
O       0.05599      1.90443     14.93421        -0.177583      0.183356      0.246084
O      15.59543     13.51557      2.49390         0.377017      0.231872     -0.058964
O      15.52055     13.68320     14.93305         1.029042     -0.721878     -0.004932
O       3.90434      1.83177      6.47771        -0.161921      0.200380      0.369284
O       3.91580     13.59337      6.63246        -0.066986      0.053684     -0.025398
O      15.60656      1.88518      6.55947         0.676980     -0.152995      0.082184
O      15.58350     13.58736      6.73207         0.450718      0.561354     -0.700377
O       3.87664      1.84283     10.91336         1.238659      0.290607     -0.285061
O       3.80659     13.73129     10.67522         1.539874     -0.335430      0.409260
O       0.07501      1.85642     10.90548        -0.695774      0.369971      0.096865
O      15.59857     13.70720     11.09166         0.392438     -0.270291     -0.351840
O       3.93809      5.90647      2.51881        -0.706148      0.170448      0.105566
O       3.97776      5.85222     14.91004        -0.119628      0.121093      0.391426
O      15.53035      5.72190      2.43191         0.769254      0.075157      0.162397
O       0.14364      5.64753     15.02440        -0.873488      0.702252     -0.140528
O       3.95027      5.73867      6.62460        -0.610457      0.054639      0.129057
O       0.06870      5.71405      6.65878         0.146177      0.124047     -0.059859
O       3.92640      5.71087     10.71789         0.161904      0.209267      0.083900
O       0.06080      5.58383     10.82033        -0.386333      0.810670      0.030129
O       3.86296      9.67242      2.38461         0.503913     -0.337078      0.342867
O       3.89910      9.77564     14.94052        -0.200712     -0.262782      0.037749
O      15.53452      9.74679      2.43196         0.734145     -0.022803     -0.064047
O      15.56480      9.76810     15.02517        -0.295198     -0.299334     -0.150233
O       3.91913      9.86497      6.51289        -0.378144     -0.068419      0.136688
O      15.59077      9.68580      6.60036         1.602961      0.093528      0.221852
O       3.88562      9.67536     10.86744         0.732377      0.449822     -0.069847
O       0.07647      9.64043     10.75527        -0.179933      0.215433      0.579016
O       7.75751      1.92975      2.52463         0.009784     -0.409405     -0.215018
O       7.87389      1.92000     15.14654        -0.401360      0.066952     -1.010107
O       7.80544     13.46385      2.51653        -0.874403      0.125407     -0.195628
O       7.73601     13.48767     14.79186         1.022755      0.533172      0.008273
O       7.76139      1.94064      6.65278        -0.619835     -0.039484      0.374698
O       7.83306     13.76546      6.58013        -0.246281     -0.578814     -0.300076
O       7.84837      1.98909     10.76341        -0.168214     -0.304523     -0.122599
O       7.78949     13.77486     10.80917         0.095963     -0.289297      0.245167
O       7.82996      5.76467      2.39363        -0.490951     -0.318127      0.077292
O       7.75642      5.76434     15.07861         0.562521      0.255927     -0.518789
O       7.82246      5.77682      6.73449        -0.130781      0.467664     -0.143319
O       7.81873      5.82287     10.73745         0.328877     -0.057693     -0.052910
O       7.80916      9.86541      2.45537        -0.191515     -0.044152      0.412529
O       7.81829      9.78765     14.88203        -0.580287      0.081736      0.343714
O       7.89259      9.59604      6.54701        -0.663556      0.003845      0.357253
O       7.71364      9.70603     10.71443         0.309556      0.134602      0.280809
O      11.64237      1.69297      2.62685         0.199610      0.227566     -0.014859
O      11.70681      1.87079     14.84171        -1.049152      0.295341      0.123026
O      11.68806     13.73660      2.31132        -0.195728     -0.270511      0.424292
O      11.75657     13.64700     15.05397        -1.086683     -0.139886     -0.082604
O      11.63501      2.03705      6.61339         1.349340     -0.541566      0.013817
O      11.72463     13.51852      6.74578         0.006100      0.335043     -0.139774
O      11.79561      1.95887     10.73263        -0.918574     -0.566085      0.449213
O      11.71873     13.51414     10.60368        -0.011187     -0.129914      0.842838
O      11.72957      5.80407      2.65348        -0.332476      0.235426     -0.203690
O      11.71899      5.92248     14.90666         0.136305     -0.380040     -0.135834
O      11.76329      5.80428      6.65999         0.021286     -0.052481     -0.117928
O      11.82175      5.90005     10.77948        -1.796431     -0.071051      0.512170
O      11.73144      9.67297      2.59393        -0.469994     -0.360616     -0.426404
O      11.63754      9.52499     14.85382         1.029935      0.151823      0.074108
O      11.75960      9.70764      6.82164        -0.774091     -0.186288     -0.206159
O      11.74262      9.83237     10.71947        -0.686968     -0.269011      0.275459
O       1.98199      3.91222      2.47143         0.032130     -0.262800     -0.006908
O       2.15862      3.88292     15.02901        -0.516718      0.049499     -0.350169
O       1.79436      0.00164      2.39076         0.137608      0.243437     -0.060482
O       1.94119     15.54023     15.00167         0.130935      0.025115     -0.157133
O      13.39889      3.80975      2.45293         0.462597     -0.268040     -0.013745
O      13.76729      3.85138     14.96835        -0.704706      0.045169      0.102872
O      13.75457     15.49786      2.48940         0.008860      1.080506      0.379821
O      13.68907     15.58379     14.87924        -0.138455      0.168417      0.136514
O       2.02511      3.81521      6.63772        -0.163662     -0.434829     -0.151924
O       1.96744     15.55116      6.64049        -0.009766      0.139390     -0.504636
O      13.73280      3.81363      6.65307        -0.162193      0.622518     -0.042624
O      13.54423     15.56299      6.57267         0.253117      0.031453      0.238163
O       1.99910      3.79229     10.70507         0.217455      0.496793      0.329663
O       1.90236     15.58050     11.00919         0.226331     -0.093301     -0.013366
O      13.66002      3.85561     10.85512        -0.007062     -0.152763      0.158613
O      13.70037     15.54530     10.98841        -0.480892      0.611776     -0.278968
O       1.83207      7.84529      2.59993         0.358016     -0.615148     -0.332278
O       1.93074      7.81341     14.86640         0.029458     -1.080881      0.545651
O      13.64188      7.76484      2.42287         0.032040     -0.361646      0.205987
O      13.79635      7.70332     14.92131         0.172688      0.069249      0.030973
O       2.14707      7.71891      6.45056        -0.214936      0.429319      0.220246
O      13.79029      7.75339      6.74974        -0.560401     -0.718315      0.048552
O       1.92962      7.74941     10.87856         0.394391     -0.721015      0.060155
O      13.82719      7.76461     10.63870        -0.009159     -0.305357      0.514106
O       2.08225     11.70826      2.37538        -0.649180     -0.668020      0.092529
O       1.87804     11.66083     15.10150         0.099994      0.355931     -0.463034
O      13.65856     11.57790      2.43152        -0.493147      0.466161      0.265586
O      13.58511     11.61643     14.91767         0.014010      0.022625     -0.018602
O       1.91339     11.65393      6.68919         0.244145      0.397096     -0.008426
O      13.72078     11.69118      6.76016        -0.246145     -0.025448     -0.197352
O       1.90844     11.67671     10.74035         0.320098     -0.178717      0.283534
O      13.88538     11.66614     10.76127        -0.647406     -0.057655      0.366342
O       5.75813      3.90161      2.33342         0.157179     -0.922542      0.622125
O       5.84430      3.85421     14.93708         0.076302      0.293161      0.128336
O       5.82120     15.54640      2.49176         0.406762      0.256257     -0.369359
O       5.86795     15.56332     14.87107         0.089235      0.281336      0.260415
O       5.84934      3.85041      6.63717        -0.028453     -0.414939     -0.159889
O       5.88796     15.58965      6.59648        -0.341582     -0.154149     -0.172848
O       5.95086      3.86169     10.80090        -0.305074     -0.288244     -0.189797
O       5.84021     15.56143     10.77663         0.189244      1.211154      0.161155
O       6.00181      7.76266      2.54847        -0.422401      0.880541     -0.461383
O       5.87106      7.78695     14.89064         0.145883      0.036816      0.213082
O       5.77828      7.86724      6.71436         0.300976     -1.200739     -0.358555
O       5.76868      7.78067     10.68711         0.095134      0.003717      0.031115
O       5.58354     11.72891      2.39074         0.649905     -0.639671     -0.187227
O       5.77928     11.69623     14.95402         0.095968     -0.168970     -0.030870
O       6.00319     11.71189      6.56754        -0.228015      0.524917     -0.310277
O       5.83759     11.74962     10.69020        -0.255148     -0.948242      0.545367
O       9.79905      3.77447      2.53826        -0.043223     -0.061259      0.233028
O       9.75372      3.90285     14.72599         0.033124     -0.629585      0.546188
O       9.68082     15.45562      2.44246        -0.503577      0.207723      0.301036
O       9.80960     15.56591     14.95716        -0.564863     -0.049756     -0.000986
O       9.74460      3.89735      6.61077        -0.162001     -0.111120      0.031499
O       9.79794     15.58675      6.71034         0.266217     -0.633587      0.344762
O      10.01041      3.89624     10.80273        -0.709009     -0.197284      0.206835
O       9.87285      0.00407     10.61605        -0.013512     -0.051329      0.489644
O       9.67445      7.75891      2.43447         0.251247      0.211387      0.082214
O       9.60203      7.75160     15.09040         0.434002     -0.029834     -0.418260
O       9.81436      7.65127      6.81443        -0.048056      1.206863     -0.096956
O       9.74805      7.77241     10.78710         0.305424      0.757449     -0.171519
O       9.84613     11.61876      2.46655         0.054008      0.213663      0.624603
O       9.83054     11.69395     14.83495         0.262930     -0.158533      0.118052
O       9.69287     11.62792      6.45646        -0.161411      0.091237      0.317405
O       9.58438     11.70903     11.00778         0.799814     -0.343332     -0.785073
