  # total energy = -7875.79432639 
CRSYTAL
PRIMVEC
    15.6080000000000005    0.0000000000000000    0.0000000000000000
     0.0000000000000000   15.6080000000000005    0.0000000000000000
     0.0000000000000000    0.0000000000000000   16.6239999999999988
PRESSURE
-0.088372 -0.285696 -0.951722 -0.210684 0.035797 -0.057785
PRIMCOORD
320 1
Pb       4.02949      3.96888      4.12398        -0.432186     -1.121235      0.268759
Pb       4.09952      4.07337      0.16829        -0.204847     -0.129577     -0.352209
Pb       3.87625      0.03487      3.98273         0.438659      0.143227      0.243229
Pb       3.75647     15.57236     16.60214         0.589824      0.202256      0.009304
Pb       0.10106      3.82676      4.20223        -0.229271      0.051048     -0.577776
Pb      15.50506      3.79839     16.59417        -0.074931      0.054087      0.488258
Pb      15.56730     15.52668      4.01293        -0.528801      0.194479     -0.094363
Pb      15.50732     15.56595     16.55507        -0.075983      0.140418      0.191321
Pb       3.62428      3.73514      8.35092         0.618284      0.300772     -0.480747
Pb       3.88623      0.07786      8.25489        -0.378236     -0.212670     -0.219447
Pb      15.51782      3.77973      8.29993        -0.164010      0.497441     -0.348236
Pb       0.12187     15.58223      8.21712        -0.411871     -0.200606     -0.051019
Pb       3.87737      3.92925     12.42552        -0.147992     -0.370581      0.212681
Pb       3.83390     15.40922     12.33798         0.227967      0.627266      0.294468
Pb      15.60596      3.83035     12.45993         0.708527      0.393743      0.288703
Pb      15.59570      0.31097     12.66524        -0.023965     -0.568369     -0.275995
Pb       3.78852      7.88412      4.28421         0.441229     -0.009017     -0.438619
Pb       3.81693      7.74412     16.59284         0.427544     -0.203333     -0.073393
Pb       0.22268      7.90969      4.27260        -0.851576     -0.244949     -0.567634
Pb       0.04362      7.73633     16.61272        -0.561937      0.068463      0.266688
Pb       4.00741      7.65116      8.18585         0.013797      0.571985     -0.489409
Pb      15.33446      7.73410      8.63719         0.469644     -0.341942     -0.610891
Pb       3.92454      7.88396     12.41355         0.400110     -0.403030      0.418282
Pb      15.56486      7.99531     12.62131        -0.051943     -0.862032     -0.461250
Pb       3.81555     11.67607      4.06435         0.132841      0.262905     -0.321819
Pb       3.90188     11.64683     16.46267        -0.240596      0.242265      0.685111
Pb      15.56960     11.67756      4.04190         0.172495     -0.417103      0.002086
Pb      15.53746     11.85554     16.56515         0.235883     -0.745843      0.148447
Pb       3.84427     11.65280      8.04523        -0.814694      0.653662      0.757858
Pb      15.58533     11.60154      8.30790         0.421185      0.426579      0.089112
Pb       4.03900     11.66018     12.27261        -0.114489     -0.147294      0.581494
Pb       0.24169     11.55077     12.32133        -1.065117      0.444851      0.216548
Pb       7.84045      3.68381      4.20335        -0.183392     -0.007755     -0.264942
Pb       7.82784      4.00203      0.09839         0.112514      0.069442     -0.416878
Pb       7.74234     15.41449      3.99534        -0.056299      0.808248      0.668399
Pb       7.89494      0.18887      0.12523        -0.308863      0.292576     -0.272149
Pb       7.55395      3.96123      8.37029         0.567944     -0.367234      0.328282
Pb       7.90369     15.52077      8.31472        -0.552129      0.839335     -0.043755
Pb       7.65572      3.73128     12.42723         0.442001      0.163836     -0.391737
Pb       7.63489     15.55503     12.56705         0.166187      0.350884     -0.468729
Pb       7.70095      7.85698      4.16049         0.345181     -0.027159      0.097887
Pb       7.76510      8.00989     16.57172        -0.163204     -1.088688      0.633863
Pb       7.83461      7.74149      8.24170        -0.239240     -0.031980     -0.068403
Pb       7.80765      7.55514     12.38345        -0.284718      0.886077      0.130327
Pb       8.00541     11.71026      4.32192        -0.691711      0.212332     -0.062390
Pb       7.60464     11.71169     16.60869         0.549932     -0.037645      0.337476
Pb       7.61753     11.75079      8.10061         1.049527     -0.036969      0.543405
Pb       7.67675     11.46152     12.39046         0.577486      0.347713      0.236294
Pb      11.84811      3.88103      4.41772        -0.454329     -0.221019     -0.636626
Pb      11.82554      4.09212      0.17633        -0.233837      0.152889      0.063732
Pb      11.53412     15.44833      4.19167        -0.195596      0.104976     -0.549577
Pb      11.56247     15.49121      0.07436         0.200294      0.490026      0.188708
Pb      11.75400      4.15674      8.45093         0.065740     -0.573233      0.117557
Pb      11.62200      0.15826      8.26973         0.218497     -0.033776      0.633530
Pb      11.84033      3.81261     12.66827        -0.195797      0.288700     -1.142942
Pb      11.81744     15.54589     12.43662        -0.620160      0.735930     -0.527690
Pb      11.75247      7.50499      4.07144         0.020215      0.662544      0.352695
Pb      11.41629      7.78669      0.03132         0.204698     -0.010349     -0.112420
Pb      11.53934      7.94531      8.27879         0.200788     -0.758468     -0.149884
Pb      11.44890      7.94839     12.70745         0.583684     -0.036802     -0.257803
Pb      11.68693     11.25249      4.28715         0.008361      0.817327     -0.631120
Pb      11.80311     11.79566     16.50532        -1.101105     -0.748863      0.252504
Pb      12.03773     11.99242      8.49749        -0.685532     -0.369602     -0.343342
Pb      11.58574     11.92058     12.39580        -0.331978     -0.550014     -0.098474
Ti       1.75372      1.81490      2.09760         1.574721      1.278169      0.895744
Ti       1.98455      1.86515     14.81501         0.077298      1.143450      0.017895
Ti       1.88563     13.57782      2.12889         0.501208     -0.453212      0.028686
Ti       1.91862     13.59512     14.62881         0.131071      0.197751      0.764851
Ti      13.47216      1.90125      2.13871         0.296799      0.242899      0.357236
Ti      13.42529      1.92221     14.88113         1.612556      0.111530     -0.592948
Ti      13.51129     13.53019      2.16765        -0.197535      0.570338      0.630619
Ti      13.58456     13.62766     14.64884         0.737439      0.883388     -0.226164
Ti       1.85547      1.99840      6.23527         0.789663      0.100972     -0.108522
Ti       1.89874     13.82025      6.12544         1.156437     -1.098101      1.522439
Ti      13.64321      1.84000      6.23789         0.327654      0.647646     -0.616260
Ti      13.67483     13.64393      6.20125         0.234514      0.661500     -0.424940
Ti       1.93211      1.91515     10.52347         0.341498     -0.162184     -0.543146
Ti       1.98277     13.48838     10.47501        -1.169762      1.854219     -1.316440
Ti      13.59938      1.89647     10.43919        -0.100392      0.329265      1.144206
Ti      13.74236     13.63423     10.61320         1.241933      0.575006     -0.612035
Ti       2.05112      5.72129      2.17767        -0.541673     -0.500199      0.537061
Ti       1.82571      5.71992     14.84413         0.969157     -0.389244     -0.777833
Ti      13.80781      5.86308      2.21005         0.014929     -0.531532     -0.926612
Ti      13.56554      5.97126     14.60977         0.131969     -0.910536      0.796644
Ti       1.91431      5.95059      6.27215        -0.239554     -1.140500      0.224838
Ti      13.69311      5.80950      6.32702         0.286357     -0.204505     -0.097823
Ti       2.21377      5.88424     10.34465        -2.001554     -0.515796      0.353398
Ti      13.82626      5.73998     10.65058        -0.342098      0.126000     -1.326374
Ti       1.88955      9.63807      2.09789         0.303074      0.841291      0.090944
Ti       1.90433      9.65500     14.59154         0.225581      0.147025      0.583685
Ti      13.62041      9.66570      2.11422         0.814900     -0.058003     -0.317168
Ti      13.60941      9.79094     14.56750        -0.311598     -0.831701     -0.157820
Ti       1.84039      9.82924      6.39393         0.162107     -0.276358      0.276943
Ti      13.62715      9.66873      6.34325         0.503905     -0.585162     -0.178312
Ti       2.02805      9.63465     10.46880        -0.443404      0.109960     -1.318464
Ti      13.49193      9.63830     10.59676         0.112324      0.277017      0.820906
Ti       5.79094      1.95206      2.10947         0.784310     -0.159090      0.847455
Ti       5.90166      2.05183     14.63567        -0.836562     -0.253412     -0.207582
Ti       5.81705     13.64821      2.13196        -0.334783     -0.508308      0.109913
Ti       5.91939     13.78367     14.79036        -0.462533      0.186991     -0.194488
Ti       5.82051      1.94859      6.42666         0.414512     -0.301489     -0.089922
Ti       5.78500     13.81348      6.41473        -0.185737     -0.594168     -1.968901
Ti       5.82582      1.83753     10.49202         0.216497      0.447326     -0.035346
Ti       5.90211     13.58442     10.40567         0.042228      0.778130      2.374004
Ti       5.97352      5.87327      2.43642        -0.043361     -0.349090     -1.474599
Ti       5.87250      5.90665     14.59069        -0.549990     -0.503096      0.324840
Ti       5.81816      5.81074      6.30667         0.172741     -0.213714     -0.137528
Ti       5.93419      5.87211     10.53489         0.036157     -0.951901     -1.228467
Ti       5.72656      9.79310      2.18941         0.536108     -0.001934      1.119020
Ti       5.75135      9.74089     14.68912         1.023915     -0.791517     -1.078683
Ti       5.79800      9.86229      6.28628        -0.169238     -1.397335     -0.826208
Ti       5.87748      9.69085     10.42371         0.530059     -0.535372      0.695927
Ti       9.75038      1.96942      2.23149        -0.628647     -0.108146      0.015026
Ti       9.72219      2.02529     14.60958        -1.683517      0.347693     -0.624147
Ti       9.67070     13.54166      2.17372         0.625560      0.375074      0.789851
Ti       9.67633     13.72963     14.61105         0.006010     -1.396494     -0.198712
Ti       9.78901      1.80982      6.32730        -1.071732      1.459268     -1.065449
Ti       9.83686     13.62191      6.47151        -0.737352     -0.624685     -0.554802
Ti       9.65871      1.91974     10.52560         0.578372      0.621374     -0.080922
Ti       9.67589     13.63807     10.40559         0.361524      0.745674     -0.201887
Ti       9.77913      5.80344      2.31105        -0.766647     -0.407861     -1.134586
Ti       9.68702      5.90781     14.45856         0.031331     -1.187244      0.434726
Ti       9.73432      5.69385      6.33992        -0.048220      0.171694      0.441732
Ti       9.87961      5.86228     10.41955        -0.068247     -1.656069      0.105308
Ti       9.62206      9.67747      2.32544        -0.296819     -0.023687     -0.473352
Ti       9.66411      9.83437     14.62309         0.345061      0.789544      0.262743
Ti       9.68933      9.67851      6.41621        -0.231873      0.585176     -0.844716
Ti       9.74922      9.74858     10.34371        -0.810479      0.269000     -0.343048
O       1.96666      1.57183      0.35508        -0.254367      0.343965     -0.732180
O       1.77717      2.07776     13.03027         0.171881     -0.164545     -0.454183
O       1.66489     13.61557      0.32043         0.648100      0.097896      0.752204
O       2.02892     13.74229     12.90281         0.025797     -0.803648     -1.117151
O      13.30461      1.84882      0.34678         0.599516      0.416597     -1.160613
O      13.67117      1.78071     13.01895        -0.419032      0.342242      0.540896
O      13.67167     13.35327      0.32169        -0.383445      0.435283      0.667757
O      13.67025     13.86915     12.85611        -0.600071     -0.882042     -0.216755
O       1.85904      1.88400      4.45231        -0.068031      0.393657     -0.045610
O       2.01089     13.58941      4.39052         0.020836      0.068229     -0.802283
O      13.70798      2.13312      4.38130        -0.291614     -0.968814      0.881792
O      13.47180     13.73338      4.43015         0.440960     -0.533464      0.162397
O       1.85230      2.05667      8.66415         0.157884     -0.458630      1.179808
O       1.78595     13.58763      8.66983         0.189454      0.076364      0.937287
O      13.70047      1.95595      8.68790        -0.083073     -0.225721     -0.638496
O      13.84715     13.52062      8.79268        -0.321414      0.443799      0.303388
O       2.14445      5.84205      0.39405        -0.147798      0.604844      0.652221
O       1.81219      5.58825     13.08138         0.230422      0.246772     -0.184903
O      13.45131      6.09312      0.39409         0.281620     -0.464562      0.378772
O      13.72316      5.73399     12.83103        -0.061516     -0.058614     -0.329789
O       1.84615      5.70570      4.45093         0.010790      0.453008      0.383400
O      13.70424      5.64105      4.47134         0.033441      0.224991      0.279879
O       2.26113      5.96260      8.54110        -0.358498     -0.512706      0.783865
O      13.71439      5.59652      8.72925        -0.001786      0.810888      0.530294
O       1.93155      9.64852      0.31583        -0.032638     -0.128431     -0.403849
O       2.13940      9.55430     12.78677        -0.503355      0.579120      0.400278
O      13.88306      9.76591      0.32456        -0.874989     -0.455755      0.235768
O      13.62324      9.76641     12.74875        -0.013952     -0.179312      0.312737
O       1.82264      9.81915      4.58093         0.097663     -0.347120      0.161332
O      13.85964      9.70123      4.58420        -0.739927      0.352370      0.635618
O       1.79982      9.81323      8.66265         0.725169     -0.502462      0.725066
O      13.52419      9.57866      8.79173         0.117399      0.071942     -0.673757
O       5.91734      2.09564      0.35341         0.011209     -0.406920     -0.953557
O       5.87300      1.99286     12.75815         0.569548     -0.027405      0.916999
O       5.92800     13.66782      0.34850         0.197877      0.137460     -0.639721
O       5.91152     13.68040     13.01019        -0.206978     -0.280865     -0.365282
O       5.78027      1.80835      4.68261        -0.001628      0.245256     -0.564844
O       5.77831     13.68957      4.59427        -0.219758      0.081392      0.037467
O       5.85584      1.72543      8.70152        -0.642607      0.519317      0.187012
O       5.83908     13.76068      8.74136        -0.307699     -0.192253     -2.316118
O       5.93561      5.76502      0.59252         0.020199     -0.133651     -0.044052
O       5.92653      5.74424     12.80807        -0.036826      0.292370     -0.290704
O       5.90637      5.57843      4.52122         0.063925      0.716685      0.563168
O       5.78472      5.76481      8.69496         0.032462      0.725831     -0.132637
O       5.71077      9.64901      0.45030         0.336819     -0.242026     -1.792864
O       5.88695      9.71363     12.84012        -0.041659      0.356209      0.537945
O       5.75725      9.82300      4.47290         0.165042      0.343683      1.021837
O       5.79756      9.66225      8.70758        -0.009707      0.121159     -1.439289
O       9.63818      2.02081      0.40941        -0.109814     -0.232548     -0.708064
O       9.65502      1.74447     12.79571         0.103868      0.527984      0.740922
O       9.72801     13.51970      0.43901        -0.139204      0.083272     -1.006800
O       9.77030     13.60701     12.80449         0.084703      0.403631     -0.207106
O       9.91203      1.80183      4.49449        -0.802565     -0.255255      1.084290
O       9.61145     13.89901      4.68258         0.707213     -0.728988     -0.404612
O      10.03200      2.01066      8.76813        -0.310742     -0.448017     -1.090241
O       9.77973     13.59572      8.57330         0.059829     -0.187665      0.523946
O       9.64264      5.83328      0.39304         0.551071      0.104245      1.309396
O       9.91479      6.09051     12.61790        -0.710249     -0.543579      0.646513
O       9.87851      5.99236      4.59577        -0.009514     -0.375009     -0.465637
O       9.90335      5.71619      8.53643        -0.361495      0.054442      0.427096
O       9.69349      9.61681      0.54033         0.171212      0.231110     -0.576168
O       9.45692      9.64944     12.84819         1.007545     -0.049418     -0.244026
O       9.51946      9.82571      4.52789         0.666226     -0.642578      0.652809
O       9.82075      9.73459      8.52366         0.002354      0.070829      0.525090
O       3.98193      1.81444      2.37150        -1.101123     -0.271935      0.234766
O       3.85824      1.85187     14.83178         0.107957     -0.113140      0.574116
O       3.84131     13.57969      2.26447        -0.435810      0.474400      0.215391
O       3.92388     13.69541     15.09828        -0.132903     -0.117123     -0.417607
O      15.55808      1.90181      2.32959        -0.407205     -0.114896     -0.011042
O      15.51282      1.90837     15.11630        -0.342341     -0.236715     -0.058220
O      15.47743     13.51110      2.56577         0.498394      0.227194     -0.580008
O      15.50160     13.56358     14.88265         0.529667     -0.175249     -0.018655
O       3.81006      2.05724      6.76136         0.163489     -0.186043     -0.267849
O       3.80824     13.69098      6.68856        -0.017593     -0.456369      0.093026
O      15.60735      1.81043      6.56898        -0.453213      0.095879      0.114878
O       0.06664     13.74548      6.27058        -1.032195      0.035510      0.620003
O       3.92010      1.94637     10.86804        -0.666416     -0.032441     -0.343924
O       3.89984     13.53162     10.80422         0.748547      0.263950     -0.024261
O       0.08267      2.00763     10.89611        -0.599776     -0.097005     -0.276253
O       0.10194     13.51817     10.87940        -0.749259     -0.065918      0.158482
O       3.98966      5.67498      2.64998        -0.582239      1.080889     -0.642557
O       3.90563      5.96583     14.96669         0.600859     -0.360370      0.030870
O       0.11046      5.72740      2.27970        -0.300009      0.006982      0.102072
O      15.51209      5.69611     15.20009        -0.153852      0.918049     -0.504392
O       3.90836      5.81180      6.39983        -0.048598     -0.232837      0.414837
O      15.60396      6.01477      6.71874        -0.092014     -0.455217     -0.168674
O       4.05376      5.90633     10.93379        -1.434891     -0.275925     -0.335882
O       0.16684      5.86348     10.56117        -0.697427     -0.329889      0.356837
O       3.84651      9.69387      2.57627        -0.199085     -0.185753     -0.003829
O       3.93887      9.51781     14.94256        -1.091402      0.573357     -0.204345
O       0.05188      9.73561      2.45689        -0.735682      0.204998      0.195425
O      15.58241      9.68978     14.61348         0.652103      0.152898      0.357979
O       3.80924      9.72573      6.63529         0.339123      0.721700     -0.155907
O      15.52719      9.55434      6.79829        -0.518195      0.393888     -0.436919
O       3.99065      9.67425     10.75737        -0.648914      0.264662      0.189461
O       0.15290      9.59211     10.86587        -0.898258      0.374686      0.092613
O       7.78091      1.96713      2.50809         0.243392     -0.508566      0.044659
O       7.75645      2.09889     14.91731         0.741067     -0.318507      0.129081
O       7.74455     13.52181      2.53268         0.341098      0.370078     -0.230802
O       7.83519     13.38176     14.96447        -0.776898      0.994326     -0.065165
O       7.76738      1.76522      6.76703         0.854960      0.422168     -0.422447
O       7.68954     13.76781      6.62104         0.330075     -0.341989      0.616104
O       7.76434      1.68235     10.63156         0.323607      0.324487      0.599340
O       7.83701     13.47555     10.63434        -0.245767      0.520061      0.395567
O       7.90197      5.70161      2.74869        -0.643876      0.140025     -0.343794
O       7.79343      5.89458     14.75218         0.315436     -0.103038      0.192913
O       7.76588      5.91113      6.68301         0.320171     -0.301527     -0.119977
O       7.80160      5.93551     10.67439         0.876833     -0.247415      0.108769
O       7.70003      9.67922      2.49646         0.494211      0.366674      0.008016
O       7.80684      9.76170     15.08373        -0.159432      0.352277     -0.237232
O       7.70374      9.74317      6.71794        -0.430514     -0.000919     -0.348616
O       7.84906      9.65444     10.64604         0.346150      0.254618      0.141624
O      11.63290      1.98138      2.31744         0.865991     -0.313574      0.802165
O      11.51778      1.84411     14.92051         1.096781      0.035772     -0.033355
O      11.61550     13.66513      2.43422         0.339756     -0.235781     -0.226292
O      11.66998     13.69189     14.96718        -0.200149     -0.384137     -0.061477
O      11.70743      1.67480      6.40625         0.763044      0.488117      0.558551
O      11.74362     13.60072      6.59755        -0.307851      0.103962      0.314444
O      11.77082      1.88940     10.88199         0.010092      0.079877      0.117549
O      11.72083     13.63041     10.70116         1.028126     -0.501905      0.375496
O      11.68001      5.81331      2.44652         0.469048      0.392691      0.353860
O      11.67288      5.83218     14.76475         0.023211      0.267997      0.269835
O      11.79686      5.66639      6.56120        -0.673217      0.125411     -0.025244
O      11.70926      5.46270     10.63359        -0.246737      0.697823      0.273863
O      11.74375      9.58136      2.46080        -0.470606     -0.114558      0.414385
O      11.61600      9.68676     14.89973         0.548164     -0.036622     -0.091615
O      11.57596      9.79175      6.43226         1.421696     -0.042609      0.220218
O      11.61965      9.63649     10.83571         0.693131      0.142924      0.002906
O       2.14315      3.72282      2.32291        -0.736326      0.903044      0.085907
O       1.90453      3.87346     15.39094         0.456699     -0.852585     -1.016038
O       1.86142     15.55132      2.55079         0.040914     -1.088951     -0.451771
O       1.83029     15.50227     14.89828         0.114241      0.531271      0.292106
O      13.70291      3.89072      2.19037        -0.515339      0.149015      0.241463
O      13.50537      3.91002     15.05832        -0.148682     -0.989581     -0.218268
O      13.59079     15.55244      2.21450         0.177407     -0.501423      0.555374
O      13.55024     15.52579     15.14521        -0.041929      0.004005     -0.343332
O       1.71148      3.90866      6.58508         0.520370      0.109262      0.095442
O       2.04555      0.07480      6.46678        -0.344432     -0.625490      0.536534
O      13.71666      3.72817      6.58323         0.159426      0.565268     -0.021050
O      13.76978     15.53109      6.56385        -0.380064      0.276050      0.308160
O       2.07652      3.98383     10.82635         0.172609     -0.291900     -0.535467
O       2.01022      0.02008     10.73666        -0.064193      0.034576      0.100723
O      13.64290      3.84347     10.88771         0.759246     -0.593830      0.251507
O      13.80722      0.01309     10.72526        -0.231579     -0.882427      0.254984
O       1.92598      7.76484      2.54979         0.372889     -0.538667     -0.135499
O       1.86766      7.74543     15.01389        -0.248862      0.425496     -0.225984
O      13.87686      7.75690      2.59135        -0.580410      0.134554     -0.144500
O      13.61254      7.82497     14.68045         0.324354     -0.186513      0.454427
O       2.05707      7.77874      6.46625        -0.100160      0.475102     -0.154410
O      13.48621      7.66900      6.50395         0.137305      1.657743      0.362211
O       2.06807      7.76442     10.73661         0.420116     -0.429165      0.012885
O      13.70375      7.64878     10.88414        -0.188707      0.820184     -0.287212
O       1.99030     11.60306      2.43537        -0.433010      1.057001     -0.072559
O       2.04342     11.64125     14.91302        -0.318231     -0.457756     -0.446264
O      13.46358     11.57362      2.52389         0.633667      0.415348     -0.044907
O      13.56699     11.61529     14.92388        -0.046127      1.150727     -0.391684
O       1.79715     11.71724      6.60115         0.275660     -0.289492     -0.021825
O      13.70761     11.80915      6.68819         0.096408     -1.887836     -0.196201
O       2.04273     11.64394     10.76499         0.042693     -0.886642      0.486789
O      13.74631     11.55309     10.73757        -0.419999      0.703024      0.256594
O       5.90224      3.77056      2.60982        -0.273078      0.618153     -0.079445
O       5.78814      3.91314     14.97366         0.009689      0.866159     -0.163615
O       5.84107     15.54117      2.44080         0.196827     -0.160640     -0.194836
O       6.04393      0.14280     14.92487        -0.164771     -2.002309      0.174054
O       5.97547      3.86716      6.68484        -0.632249      0.219818     -0.104066
O       5.67290      0.00835      6.71491        -0.102860      0.327203      0.134426
O       5.97705      3.82660     10.63705        -0.037703      0.168026      0.344028
O       5.90695     15.51467     10.90419        -0.682628     -0.865563     -0.086966
O       5.90704      7.74744      2.54386        -0.294041     -0.292053      0.472527
O       5.99437      7.80148     14.95037        -0.436755     -0.203896     -0.070549
O       5.71389      7.86077      6.38855         0.311144     -0.716992      0.595592
O       5.96861      7.76172     10.82939        -0.717609      0.502137     -0.160451
O       5.75191     11.68079      2.19140        -0.118019      0.081804      0.828244
O       5.81011     11.60384     15.01066        -0.236635      0.526206      0.011403
O       5.73336     11.78625      6.68385         0.325504     -1.013026     -0.169406
O       5.95986     11.64695     10.75057        -0.724547      0.014919      0.094549
O       9.81457      3.81753      2.61241        -0.344393      1.396786      0.036159
O       9.63556      3.99287     14.72279         0.665990     -0.911360     -0.099336
O       9.73825      0.01297      2.45277        -0.284765     -1.180341     -0.308368
O       9.54533     15.55114     15.00064         0.179100      0.653052      0.094864
O       9.77126      3.82758      6.27581        -0.178989     -0.149348      0.787948
O       9.75110     15.57032      6.76211         0.297637     -0.048469      0.252509
O       9.44097      3.79930     10.75012         0.689525      0.392846      0.335915
O       9.85356     15.54830     10.56636        -0.251596     -1.078331      0.398536
O       9.61761      7.75885      2.60291         0.581364      0.037763     -0.128643
O       9.79980      7.75063     14.85883        -0.286018      0.830210      0.307801
O       9.68870      7.78380      6.67720         0.307119      0.302344      0.018097
O       9.89773      7.70240     10.40311        -0.161394      0.872491      0.541007
O       9.71409     11.68103      2.70726         0.377420     -0.259809     -0.430922
O       9.79835     11.73988     14.78973         0.257229     -1.250881      0.368723
O       9.50067     11.71460      6.52571         0.327130      0.185574     -0.094468
O       9.84793     11.61860     10.65843         0.085030      0.230006      0.489135
