  # total energy = -7881.26072774 
CRSYTAL
PRIMVEC
    15.6080000000000005    0.0000000000000000    0.0000000000000000
     0.0000000000000000   15.6080000000000005    0.0000000000000000
     0.0000000000000000    0.0000000000000000   16.6239999999999988
PRESSURE
-0.176891 -0.194845 -0.331155 -0.132209 -0.18207 0.038414
PRIMCOORD
320 1
Pb       3.97774      3.97062      4.16524         0.175501     -0.305037     -0.389597
Pb       4.04247      4.07157      0.11308        -0.597947     -0.988547     -0.423101
Pb       3.88657      0.01650      4.04004        -0.354765      0.025846      0.290370
Pb       3.78349     15.57214     16.61099         0.413776      0.500580     -0.275393
Pb       0.07658      3.84592      4.11846        -0.469629     -0.154941      0.565647
Pb      15.47735      3.84179      0.01096         0.598083     -0.268519     -0.508762
Pb      15.52841     15.58905      4.00277         0.464541     -0.251726      0.686306
Pb      15.50348     15.55732     16.59838         0.210103      0.219539     -0.315546
Pb       3.70982      3.82907      8.33443         0.792743     -0.000346     -0.046859
Pb       3.89437      0.05324      8.33269        -0.113548     -0.112571     -0.380993
Pb      15.56215      3.81255      8.26106        -0.090226     -0.343701      0.385728
Pb       0.12198     15.56993      8.19720        -0.522123      0.332272      0.668255
Pb       3.92298      3.94998     12.36104        -0.310360     -0.505484      0.640798
Pb       3.84329     15.43458     12.29048         0.214020      0.854774      0.737915
Pb      15.58324      3.76446     12.43161        -0.113737      0.764253      0.000130
Pb      15.53100      0.25180     12.54909         0.520608     -0.756342     -0.050827
Pb       3.81967      7.83247      4.31360         0.491633     -0.072727     -0.541550
Pb       3.81829      7.74305      0.02011         0.195642      0.091720     -0.491572
Pb       0.20827      7.87670      4.20424        -0.979159     -0.308557      0.094266
Pb       0.02373      7.74635      0.02672        -0.090225     -0.125688     -0.272661
Pb       4.07582      7.71510      8.07337        -0.730222      0.061892      1.269384
Pb      15.45357      7.77550      8.48839         0.211848      0.040855     -0.466437
Pb       3.91251      7.86936     12.45488        -0.147160     -0.198730     -0.054592
Pb       0.00574      7.91354     12.56843        -0.057881     -0.341028     -0.566449
Pb       3.85714     11.67432      4.08739        -0.344507      0.164856      0.440010
Pb       3.91539     11.59519     16.44854         0.251484      0.477542      0.789328
Pb      15.58987     11.65106      4.09218         0.209351      0.503545      0.056464
Pb      15.55580     11.79133     16.55213         0.118166      0.023295      0.192073
Pb       3.82371     11.63780      8.11156         0.479917      0.028206      0.413059
Pb      15.55692     11.63183      8.33077         0.310212      0.208698      0.047077
Pb       4.03480     11.69619     12.34198        -0.471010     -0.210390     -0.121908
Pb       0.15244     11.54248     12.31234        -0.211142      0.594115      0.140146
Pb       7.87168      3.78308      4.18966        -0.787840      0.019068     -0.034155
Pb       7.87302      3.99748      0.10194        -0.760705     -0.601117     -0.204800
Pb       7.81562     15.46900      3.99593        -0.646292      0.343272      1.139082
Pb       7.90559      0.14977      0.07669        -0.591800     -0.470496     -0.150971
Pb       7.61596      3.98235      8.30977         0.195764     -0.852215      0.080336
Pb       7.84071     15.51560      8.35350        -0.051139      0.508557     -0.740642
Pb       7.68258      3.83088     12.39980         0.273277     -0.222080      0.280678
Pb       7.68999     15.56451     12.53426         0.146319      0.146872     -0.280129
Pb       7.71942      7.85550      4.17033         0.052850     -0.248666     -0.546967
Pb       7.88194      7.98713     16.60104        -0.593778     -0.381415      0.065564
Pb       7.79398      7.77289      8.26131        -0.027228     -0.214390     -0.015544
Pb       7.88100      7.59486     12.30402        -0.644757      0.778205      1.315878
Pb       7.97219     11.67393      4.30316        -0.537793      0.144153     -0.387545
Pb       7.70263     11.66044      0.04500        -0.051346      0.065794     -0.626368
Pb       7.62328     11.73870      8.11000         0.469300      0.107875      0.516761
Pb       7.70322     11.51218     12.41062         0.138871      0.449546      0.228346
Pb      11.74256      3.95384      4.29731         0.110874     -0.224161     -0.249790
Pb      11.79788      4.06576      0.07340        -0.064839     -0.372878     -0.083352
Pb      11.49137     15.51604      4.13061         1.177191     -0.153586      0.345121
Pb      11.56831     15.54456      0.08487         0.611727      0.090440     -0.288074
Pb      11.78055      4.03706      8.33174        -0.501316     -0.422083      0.541330
Pb      11.64975      0.10052      8.23293         0.012724     -0.363949      0.304124
Pb      11.85848      3.82479     12.57906        -0.663023      0.568773     -0.736915
Pb      11.90409     15.53675     12.41956        -1.103437      0.092835     -0.022250
Pb      11.71801      7.48563      4.01456        -0.365656      0.832993      0.619227
Pb      11.39009      7.77476     16.62275         1.262927     -0.113689      0.135002
Pb      11.56417      7.94523      8.18531         0.378862     -0.497058      0.694624
Pb      11.57915      7.84116     12.61897        -0.128656     -0.440255     -0.281020
Pb      11.57320     11.36912      4.24380         0.845267      0.930706      0.050621
Pb      11.79168     11.77675     16.53666        -0.488031     -0.248196     -0.075503
Pb      12.02979     11.89838      8.35206        -1.589062     -0.277247      0.799236
Pb      11.65032     11.84091     12.41399        -0.180015     -0.118615     -0.157287
Ti       1.98484      2.09385      2.15842         0.583851     -2.037371     -0.201591
Ti       1.93693      2.01926     14.64339         1.070304     -0.757619      0.884070
Ti       1.96097     13.70663      2.12562        -0.391308      0.097788      1.119997
Ti       1.98256     13.63487     14.60655        -0.325509      0.960623      0.776583
Ti      13.65330      1.97222      2.33936        -0.349347     -1.215963      0.150146
Ti      13.56525      1.93686     14.69822         0.812103     -0.768982     -0.254059
Ti      13.60870     13.59489      2.20550         0.259327      0.713177      1.014804
Ti      13.64910     13.62505     14.55766         0.033059      0.706569      0.480714
Ti       1.93764      1.86834      6.26263        -0.054690     -0.448118      0.077253
Ti       1.90104     13.52420      6.45099         0.546305      0.226975     -1.462437
Ti      13.60027      1.94662      6.40058         0.105143     -0.182888      0.100772
Ti      13.68279     13.70459      6.39104        -0.062455     -0.083091      0.457376
Ti       1.91864      1.91078     10.57674         0.857639     -0.357477     -0.793717
Ti       1.91835     13.61316     10.45284         0.136136     -0.405258     -0.535909
Ti      13.61942      1.99700     10.46364        -0.463292      0.099216     -0.754680
Ti      13.69790     13.68385     10.58964        -0.002955     -0.519211     -1.653332
Ti       1.84713      5.88091      2.20829         0.824823     -0.302688     -0.606109
Ti       1.96536      5.88879     14.51981         0.247415     -0.387893      0.658341
Ti      13.66307      5.80651      2.27166        -0.509927      0.272635     -0.557087
Ti      13.72580      5.82488     14.66067        -0.868879      0.319414     -0.151097
Ti       1.80088      5.74994      6.48096         1.291991      0.408961     -0.961366
Ti      13.62729      5.83998      6.44467        -0.621994      0.927667     -1.114870
Ti       1.73172      5.82680     10.59255         0.081104      0.370376      0.878593
Ti      13.45032      6.02248     10.60425         0.494493     -1.252316      2.325872
Ti       1.95800      9.72957      2.14657         0.047239      0.547441      0.262676
Ti       1.88275      9.82550     14.73853         0.723771     -1.162558     -0.825026
Ti      13.63312      9.68396      2.15163         0.128119      0.031733     -0.081951
Ti      13.63882      9.68092     14.77855        -0.052223     -0.077773     -0.764631
Ti       1.88792      9.58389      6.42345         0.450375      0.768275      0.825098
Ti      13.63703      9.75915      6.37521         0.106767     -0.483785     -0.222817
Ti       1.95694      9.65944     10.40091         0.466455      0.487931      0.083446
Ti      13.58979      9.78267     10.52497        -0.031308      0.292233     -0.275123
Ti       5.85076      1.88180      2.23723        -0.385239      0.713155      0.361135
Ti       5.79767      1.83659     14.81632        -1.168212      0.050541     -0.099870
Ti       5.80207     13.56032      2.24983        -0.240694      0.252818     -0.371525
Ti       5.80237     13.54918     14.56387         0.411597      1.110075      0.801060
Ti       5.76880      1.88762      6.27966         1.649588      0.057963      0.028668
Ti       5.83617     13.66520      6.21797        -0.141871      0.207288      0.656755
Ti       5.84031      1.91584     10.45079        -0.793016     -0.341470      0.397340
Ti       5.87701     13.61262     10.35714        -0.723378     -0.169329     -0.037360
Ti       5.74412      5.88307      2.18485         0.032340     -0.425685      0.516235
Ti       5.84042      5.83155     14.72537        -0.555414     -0.163933     -0.781909
Ti       5.84073      5.70643      6.34728        -0.479325      0.327706     -0.055013
Ti       5.65745      5.81764     10.46591        -0.257535     -0.152112     -1.165361
Ti       5.84378      9.76496      2.24411         0.190770     -1.039474     -0.008991
Ti       5.82868      9.68188     14.64790        -0.012025     -0.305122     -0.339354
Ti       5.92319      9.67966      6.29280        -1.722757     -0.171585     -0.205400
Ti       5.82564      9.66830     10.38715        -0.357819      0.285053     -0.044942
Ti       9.77828      1.91084      2.32925        -0.384397      0.190268     -1.504491
Ti       9.79227      1.90955     14.73401        -0.318549     -0.314059     -0.527194
Ti       9.73211     13.55202      2.19434         0.583498     -0.052461     -0.101595
Ti       9.68609     13.62975     14.70017         0.039407     -0.299914     -0.751025
Ti       9.64909      2.05994      6.48642        -0.685502     -1.123720      0.725468
Ti       9.76666     13.65940      6.35952        -0.292832      0.406591      0.689021
Ti       9.76062      1.88489     10.57363        -0.231106      0.224384     -0.248373
Ti       9.63926     13.70002     10.59829         1.074509     -0.136173     -0.686621
Ti       9.57064      5.77119      2.19092         0.881482      0.895623      0.042223
Ti       9.70852      5.67233     14.80752         0.429666      1.728818     -1.329813
Ti       9.71108      5.79552      6.39756        -0.040318      0.236389     -0.612532
Ti       9.61602      5.78550     10.57400         1.984528     -0.434843      0.275916
Ti       9.84052      9.73074      2.22458        -1.670477     -1.114820     -0.788462
Ti       9.76326      9.77650     14.67300        -0.737987     -0.026959     -0.040966
Ti       9.71919      9.76703      6.42265         0.666210      0.248436     -0.397133
Ti       9.72886      9.79741     10.54908         0.092084     -0.065022      0.548054
O       1.94157      2.14838      0.36634        -0.419367     -0.295427      0.704594
O       1.96736      1.82433     12.86090        -0.626878     -0.151811     -0.940947
O       2.06300     13.64258      0.37826        -0.184552     -0.243396     -0.182938
O       1.88023     13.63633     12.86447         0.038760     -0.188732     -0.620404
O      13.73449      1.86924      0.55449        -0.274098      0.452492     -0.661236
O      13.64572      1.98242     12.85480        -0.068519     -0.249798      0.090480
O      13.70118     13.84917      0.46987        -0.414931     -0.704453     -0.708969
O      13.62810     13.60847     12.77353         0.205836     -0.162272     -0.086655
O       1.95858      1.83151      4.48718        -0.042789      0.606640      0.733210
O       1.75203     13.50250      4.66389         0.166330      0.088579      0.361532
O      13.64634      2.03101      4.63224        -0.386877     -0.072535      0.256031
O      13.86406     13.59396      4.66384        -0.283320     -0.061914     -0.548443
O       2.00511      1.80454      8.73532        -0.082329      0.472747      0.741836
O       2.03741     13.51637      8.64459         0.034243      0.530266      0.168407
O      13.59482      1.93201      8.65652         0.097613      0.131394      0.490880
O      13.48717     13.66605      8.71032         0.598312      0.123450      0.578741
O       1.79662      5.84199      0.39507         0.102484     -0.143568      1.039504
O       2.06328      6.01697     12.74990        -0.220729     -0.423392      0.337329
O      13.73928      5.63435      0.45844         0.118780     -0.157678      0.519258
O      13.41271      5.85699     12.90038         0.382283     -0.138483      0.452968
O       1.96684      5.87564      4.68169        -0.399169     -0.236111      0.343383
O      13.46887      5.90346      4.63176         0.357761     -0.528157      0.365015
O       1.56376      5.79171      8.86274         0.054554     -0.173067     -1.648723
O      13.55256      5.88517      8.89357         0.434561      0.117563     -2.620909
O       1.98225      9.67280      0.37305        -0.109249      0.108780      0.482346
O       1.89251      9.82937     12.89912        -0.255620     -0.221762      0.535419
O      13.54244      9.76570      0.38561         0.435813     -0.148585      0.151494
O      13.76085      9.73614     12.94369        -0.273257     -0.035092      1.079338
O       1.93815      9.59828      4.63396        -0.175093     -0.137557     -0.577211
O      13.56745      9.69085      4.58721        -0.144096      0.248355     -0.153710
O       1.93856      9.65484      8.62551        -0.218857     -0.116625      0.086147
O      13.57251      9.76096      8.71303         0.428721     -0.244844      0.211967
O       5.83007      1.81565      0.47827         0.160718      0.120331     -0.711159
O       5.75779      1.81093     13.03908         0.636493      0.269958     -0.438362
O       5.61668     13.39113      0.47116         0.600564      0.267500      0.756614
O       5.75666     13.58590     12.78128         0.636580      0.136934     -0.142697
O       5.82185      2.01203      4.48998         0.069986     -0.163222      0.362341
O       5.93141     13.66789      4.44984        -0.099884     -0.448697      0.090415
O       5.78521      1.92992      8.68978        -0.117758      0.030515      0.295650
O       5.83210     13.55686      8.53342         0.297197     -0.097837      0.860391
O       5.59494      5.88828      0.39847         0.622115     -0.293435     -0.613685
O       5.62561      5.84112     12.89320         0.549477     -0.168518      0.320091
O       5.76006      5.79624      4.55420        -0.002746      0.013177     -0.338765
O       5.79528      5.67801      8.61658         0.450457      0.493211      1.201029
O       5.87144      9.83003      0.43786        -0.058235     -0.062845     -0.275167
O       5.69294      9.67534     12.85747         0.462450      0.207516     -0.111360
O       5.84910      9.45339      4.50580         0.129670      0.410230     -0.372854
O       5.86449      9.71154      8.58795         0.174439     -0.172261      0.561086
O       9.87551      1.69960      0.50899        -0.615667      0.454012      0.483674
O       9.76211      1.98940     12.96534        -0.232905     -0.086036      0.264992
O       9.95164     13.62080      0.41910        -0.653749      0.046444      0.172000
O       9.72432     13.53146     12.89375        -0.172716      0.327384      0.633910
O       9.59621      2.14690      4.72392         0.336273     -0.106877     -1.718141
O       9.68012     13.55860      4.59405         0.304680     -0.259821     -1.370814
O       9.52033      1.69524      8.77488         0.814131      0.321846      0.687636
O       9.62227     13.74614      8.78013         0.044605      0.051116      0.112682
O       9.63671      5.87528      0.35337         0.476352     -0.224679      0.695933
O       9.70294      5.79530     13.00572         0.037712     -0.257209      0.063812
O       9.71201      5.71597      4.58660         0.114239     -0.141842     -0.199396
O       9.58722      5.97807      8.83303         0.173501     -0.261723     -0.738772
O       9.66324      9.67825      0.40648         0.090472      0.121046      0.248801
O       9.75300      9.76210     12.89574        -0.022726      0.038053     -0.527579
O       9.79466      9.82152      4.57326        -0.424643     -0.364246      0.327446
O       9.59442      9.56577      8.80093         0.172390      0.178265     -0.466310
O       3.92329      2.03269      2.52534        -1.159522     -0.138819     -0.106487
O       3.88129      1.91849     15.08907        -0.440681     -0.020784      0.070169
O       3.87139     13.61476      2.69581        -0.044107     -0.350889     -0.503485
O       3.93485     13.39064     14.77789        -1.128619      0.138349      0.362248
O      15.52559      1.96938      2.61059         1.153051     -0.163824     -0.314998
O      15.60277      1.90418     14.90795        -0.652240     -0.024142      0.295099
O       0.00622     13.83669      2.42713         0.292804     -0.858385     -0.167542
O      15.54902     13.71820     14.99046         0.339012     -0.598138      0.046654
O       3.95068      1.87433      6.66476        -1.574553     -0.102101     -0.013251
O       3.92928     13.48218      6.52348        -0.215697      0.347283      0.035609
O      15.60469      1.94274      6.59895        -0.042244      0.122854      0.238181
O      15.60467     13.60809      6.85677        -0.349584     -0.126414     -0.205504
O       3.88075      1.88142     10.90248         0.000545      0.296957     -0.526302
O       3.87072     13.58883     10.76962         0.441183      0.107793     -0.170066
O      15.53404      1.94243     10.75458         0.497100     -0.055323      0.500924
O       0.05312     13.60130     10.63004        -0.845138      0.041769      0.346254
O       3.75972      5.74934      2.49592         0.188336      0.086656     -0.040001
O       3.83624      5.95369     14.97876         0.449939     -0.628438      0.312385
O      15.50802      5.97911      2.68481         0.872338     -0.731051     -0.343375
O       0.04070      5.87454     14.84966        -0.297891     -0.471778     -0.013912
O       3.86641      5.77190      6.82854        -0.715755     -0.178544     -0.663613
O      15.49407      5.72787      6.66290         0.402486     -0.167699      0.238021
O       3.76854      5.86114     10.59958         0.663327     -0.339608      0.392669
O      15.42566      5.85008     11.10783         0.880299      0.070963     -0.513106
O       3.83806      9.76009      2.54299        -0.093514     -0.336162     -0.059119
O       3.87196      9.78616     14.92215         0.039983     -0.231188      0.221443
O      15.54475      9.51818      2.45722         0.422305      0.499266      0.043306
O      15.60338      9.69099     15.14553        -0.480200     -0.001314     -0.373579
O       3.90173      9.55288      6.54726        -0.558764      0.192154      0.080484
O      15.57362      9.84297      6.58630        -0.203601     -0.673899      0.288211
O       3.92581      9.72724     10.72638        -0.443387     -0.230315      0.052608
O      15.60665      9.77693     10.75315        -0.242776     -0.305182      0.000951
O       7.76193      1.77895      2.48904         0.737166      0.338837      0.135672
O       7.78110      1.83503     15.12365         0.554351      0.232343     -0.253008
O       7.81367     13.68682      2.40082        -0.213651     -0.486558     -0.110261
O       7.78029     13.68892     15.04149         0.291971     -0.018241     -0.184799
O       7.71777      1.99061      6.74617         0.017579      0.324262     -0.115961
O       7.80973     13.49667      6.48044        -0.664812     -0.089255      0.682715
O       7.69492      2.00464     10.85948         0.445733     -0.557994      0.324661
O       7.74442     13.71774     10.82025        -0.453809     -0.335946      0.022208
O       7.76056      5.89845      2.31758        -0.697310     -0.065760      0.550986
O       7.80113      5.76401     15.00768        -0.953622     -0.012850      0.126124
O       7.79897      5.67036      6.60825        -0.861976      0.599004      0.178430
O       7.74596      5.75124     10.87234        -0.414382     -0.131696     -0.039856
O       7.73974      9.59999      2.52762         0.499333      0.051495      0.144216
O       7.77632      9.70330     14.99257         0.341872      0.303551     -0.096259
O       7.75832      9.65794      6.64757         1.127570     -0.001299     -0.228501
O       7.70834      9.72551     10.89923         0.717319     -0.436035     -0.394930
O      11.61948      1.89209      2.61475         0.374386      0.491379      0.383777
O      11.72336      1.93876     15.03247        -0.244113      0.185200      0.004597
O      11.68399     13.64174      2.54053        -0.100305     -0.267394      0.131743
O      11.73117     13.68213     14.91904         0.268215     -0.809845      0.151290
O      11.58064      2.02015      6.74478         0.843685     -0.317184     -0.094402
O      11.65306     13.60500      6.65557         0.493613      0.382906     -0.247971
O      11.71117      1.77472     10.77716        -0.441210      0.149220     -0.016123
O      11.67034     13.65895     10.82827        -0.267108     -0.087129      0.382903
O      11.66044      5.63326      2.52433        -0.142206      0.022257     -0.113666
O      11.73227      5.81678     15.11700        -0.560894     -0.367749      0.082207
O      11.66698      5.84825      6.68789        -0.151758      0.002154      0.401736
O      11.60777      5.81934     10.89605        -0.224794      0.133295     -0.012353
O      11.65457      9.82191      2.37163         0.997291      0.040203      0.650602
O      11.65378      9.74322     15.02992         1.206116     -0.110321     -0.183935
O      11.65876      9.76758      6.71175        -0.284917     -0.295631     -0.282763
O      11.72328      9.77679     10.78881        -1.311320     -0.041230      0.296693
O       1.87868      3.87377      2.56697        -0.553835      1.480806      0.065738
O       1.92918      3.83017     14.60988        -0.061278      1.874317      0.536236
O       2.05292      0.04232      2.43510        -0.224277     -0.421210     -0.201057
O       1.98392     15.53618     15.00460         0.069774     -0.521944     -0.126528
O      13.70722      3.84867      2.68749        -0.339614      0.640685     -0.342412
O      13.58835      3.84854     14.91075         0.470641      0.214957      0.547596
O      13.58748     15.56188      2.70466        -0.313438      0.435458     -0.248332
O      13.62095     15.57953     14.81169         0.250481      0.234987      0.280525
O       1.93664      3.77441      6.76004        -0.175121      0.502204     -0.295538
O       1.95273     15.55087      6.71492         0.205494      0.047341     -0.279967
O      13.52245      3.91270      6.77955         0.458493      0.120142     -0.247617
O      13.65218      0.03176      6.69869        -0.264579     -0.210914     -0.289545
O       1.84950      3.87264     10.82708         0.032060     -0.062905      0.242125
O       1.93692      0.01244     10.79954        -0.189841     -0.874050     -0.068478
O      13.52103      3.86782     10.76120         0.162933     -0.342859      0.389583
O      13.68164     15.52289     10.78690         0.140217      1.208568      0.494203
O       1.94634      7.75785      2.54120         0.041096      0.304248     -0.113743
O       2.02439      7.76238     14.98949        -0.812787      0.820494     -0.115829
O      13.42751      7.70654      2.38432         0.180300      0.494680      0.134207
O      13.72724      7.65074     15.14985        -0.413516      1.732253     -0.562532
O       1.83931      7.60793      6.79813        -0.232901      1.325117     -0.249731
O      13.68929      7.82387      6.77424        -0.173321     -0.386769     -0.048212
O       1.87295      7.81498     10.83723        -0.281191      0.172958     -0.188430
O      13.61553      7.85280     10.93926         0.061555      0.540434     -0.305315
O       1.92339     11.69931      2.53777        -0.470324     -0.712335     -0.352058
O       1.85469     11.67462     15.04868        -0.280051      0.378976     -0.174067
O      13.75791     11.66087      2.46376        -0.173551      0.115121     -0.101226
O      13.70112     11.67597     15.06158        -0.207968      0.105055     -0.318853
O       1.92282     11.55034      6.72223         0.090735      0.393748     -0.221865
O      13.60012     11.71956      6.73315         0.487724     -0.310010     -0.444625
O       1.90392     11.67171     10.67983         0.272201     -0.346992      0.449368
O      13.58056     11.73875     10.66002         0.319380     -0.861569      0.680634
O       5.79875      3.87173      2.47475         0.349654      0.507413     -0.140453
O       5.69803      3.88645     15.09239         0.859578      0.428215     -0.211620
O       5.72407     15.56799      2.58330         0.388861     -0.727334     -0.530794
O       5.63833     15.48371     15.05393         0.764151     -0.228528     -0.193252
O       5.73853      3.85146      6.62719         0.200918     -0.169242     -0.024630
O       5.95356     15.56757      6.54384        -0.587593     -0.482812      0.047277
O       5.74156      3.88060     10.81503         0.274110     -0.129629      0.108028
O       5.81551     15.51988     10.61909        -0.038251      0.466377      0.405762
O       5.74318      7.70041      2.35262        -0.107789      0.815327      0.794644
O       5.90180      7.79166     14.91741        -0.377631     -0.297859      0.479242
O       5.82836      7.71876      6.53304         0.500432     -0.610164      0.591144
O       5.84352      7.68503     10.64096         0.097943      0.802406      0.308333
O       5.88663     11.57777      2.62470        -0.156483      1.379302      0.088474
O       5.96515     11.64403     14.86776        -0.125458      0.049413      0.327300
O       5.82356     11.54576      6.47182         0.272175      0.793185      0.058521
O       5.81206     11.64995     10.71499         0.401890      0.088138      0.053837
O       9.52020      3.86318      2.37425         0.347595     -0.372390      0.178547
O       9.71480      3.84183     15.16572         0.259101     -0.653814      0.044691
O       9.73231     15.54521      2.62532         0.231140     -0.177302     -0.266561
O       9.87183     15.57237     15.00263        -0.640755      0.064813      0.051929
O       9.69070      3.93220      6.83705         0.355412     -0.014855      0.239317
O       9.65373     15.60519      6.51760         0.234672     -0.463760      0.514036
O       9.79060      3.78139     10.85709        -0.403559      0.594429     -0.181661
O       9.70743     15.57538     11.05111        -0.429172      0.348355     -0.218032
O       9.81852      7.77367      2.51467        -0.126389     -0.460688     -0.087611
O       9.81811      7.78468     14.96306        -0.564149      0.040755      0.013575
O       9.66469      7.72420      6.62055        -0.009990      0.728395      0.298213
O       9.79979      7.75778     11.00704        -0.537425      0.371310     -0.439610
O       9.69193     11.60496      2.51931        -0.193373      1.224024      0.088120
O       9.75353     11.66778     14.97829         0.024068      0.470480      0.387675
O       9.70566     11.63026      6.62795        -0.260332     -0.227534      0.118971
O       9.64531     11.72954     10.89478         0.189522     -0.924018     -0.324254
