  # total energy = -7882.97595875 
CRSYTAL
PRIMVEC
    15.6080000000000005    0.0000000000000000    0.0000000000000000
     0.0000000000000000   15.6080000000000005    0.0000000000000000
     0.0000000000000000    0.0000000000000000   16.6239999999999988
PRESSURE
-0.652143 -0.521594 -0.159194 -0.263537 0.338522 -0.004031
PRIMCOORD
320 1
Pb       3.89186      3.79210      4.09393         0.163894      0.550780      0.717358
Pb       3.81455      3.80719      0.05304        -0.188662      0.178240     -0.463182
Pb       3.91023     15.55227      4.18073         0.192653      0.110414      0.298244
Pb       3.86635     15.52608      0.03292         0.330979      0.238518     -0.301226
Pb      15.46506      3.83246      4.12042         0.520876      0.006821      0.067065
Pb      15.55949      3.88057     16.55460         0.311333     -0.309174      0.437848
Pb       0.08177     15.60736      4.14853        -0.244867     -0.196381     -0.370154
Pb       0.07732     15.57178      0.00040        -0.507851      0.332641      0.053132
Pb       3.94406      3.94970      8.34378        -0.209344      0.020198     -0.702298
Pb       3.94628      0.16247      8.43045        -0.365025     -0.593220     -0.088342
Pb      15.60540      3.91488      8.23112         0.037132      0.326030     -0.053344
Pb       0.09248      0.03422      8.27907        -0.375713      0.136632      0.073508
Pb       3.79140      4.00632     12.49869         0.117678     -0.226590     -0.395604
Pb       3.82293     15.48877     12.37777         0.193054      0.656316      0.702565
Pb      15.55241      3.78459     12.29351        -0.170688      0.377096      0.280667
Pb      15.56399     15.59289     12.41394         0.142466      0.034716      0.348445
Pb       3.78349      7.79454      4.13403         0.525152      0.117729      0.043889
Pb       3.76919      7.76340     16.56608         0.246067     -0.424578      0.196368
Pb      15.59210      7.85377      4.02087        -0.167873     -0.091727      0.647107
Pb      15.60435      7.79928     16.61005        -0.149859     -0.135365     -0.113667
Pb       4.01092      7.81600      8.27468        -0.383364     -0.056726     -0.345386
Pb      15.57130      7.82408      8.31993         0.222682     -0.122772     -0.440980
Pb       3.80823      7.85579     12.54564        -0.226251      0.198485     -0.088881
Pb      15.53567      7.75320     12.43568        -0.129866     -0.187797      0.272881
Pb       3.94358     11.71177      4.17047        -0.011772     -0.956721      0.536472
Pb       3.87554     11.67517     16.51404         0.066269      0.055155      0.215498
Pb       0.02161     11.81928      4.13781        -0.135620     -0.393607      0.312519
Pb       0.06289     11.79172      0.08722        -0.333146     -0.508369     -0.601814
Pb       3.87814     11.67878      8.27532        -0.152510      0.057103      0.314177
Pb      15.44709     11.71271      8.25457         0.073857     -0.418165      0.312874
Pb       3.77749     11.82860     12.49808         0.238335     -0.608708      0.100577
Pb      15.53490     11.54357     12.37577        -0.226283      0.203429      0.210169
Pb       7.72128      3.86851      4.08748         0.253481      0.228930      0.594002
Pb       7.60737      3.70084     16.60447         0.513188      0.158223      0.343617
Pb       7.69890     15.58453      4.06879         0.653966     -0.551028      0.593278
Pb       7.76042     15.46944      0.03141         0.490454      0.081840     -0.306513
Pb       7.76410      3.92055      8.34880         0.086782      0.023303     -0.800470
Pb       7.83190     15.53435      8.44413         0.081130     -0.134914     -0.208667
Pb       7.78087      3.98086     12.49891        -0.014969     -0.003914     -0.210113
Pb       7.89300      0.09813     12.51795        -0.003399     -0.035314     -0.201134
Pb       7.63441      7.79312      3.97502         0.800931      0.057785      0.198629
Pb       7.85718      7.83632     16.53422         0.049427     -0.001051      0.124662
Pb       7.87253      7.82786      8.41193         0.096177      0.020173     -0.713120
Pb       7.87193      7.75004     12.53705         0.185440      0.266911     -0.081075
Pb       7.74058     11.77902      4.04950         0.387849     -0.126419      0.057040
Pb       7.78704     11.56390     16.58565         0.447443      0.129274     -0.056052
Pb       7.63048     11.65790      8.32679         0.098010      0.043668      0.473648
Pb       7.75307     11.62562     12.50340        -0.129270     -0.185147     -0.010598
Pb      11.70267      4.00567      4.24003        -0.056620     -0.235273     -0.567592
Pb      11.76630      3.86929     16.54457        -0.391530      0.532646      0.345245
Pb      11.76421      0.19825      4.21496        -0.211289     -0.823876     -0.377645
Pb      11.68475     15.56256      0.00534        -0.124558     -0.287012     -0.310369
Pb      11.64497      3.87777      8.26848         0.477521      0.022705     -0.074071
Pb      11.50283     15.47473      8.20491         1.032289     -0.181651      0.778803
Pb      11.65294      3.81921     12.43364         0.365105      0.330788      0.056639
Pb      11.80540     15.50745     12.40948        -0.598388      0.050387      0.613975
Pb      11.75860      7.68799      4.00253        -0.462089      0.500955     -0.128389
Pb      11.64920      7.74186     16.59055         0.189017      0.206425      0.013343
Pb      11.67836      7.84522      8.09360        -0.025948      0.212297      0.598177
Pb      11.69854      7.72140     12.49775        -0.093578     -0.139320     -0.012116
Pb      11.60443     11.81849      4.29570         0.376153     -0.074070     -0.713423
Pb      11.88170     11.77406     16.59327        -0.201111     -0.312788      0.147857
Pb      11.70590     11.67432      8.24786         0.353853     -0.350758      0.080731
Pb      11.57127     11.62720     12.33619         0.754834      0.020567      0.742468
Ti       2.01727      1.95573      2.30867        -0.821870     -0.617066     -1.173305
Ti       1.91899      1.87464     14.78946        -0.315487     -0.023932      0.189659
Ti       2.16313     13.54168      2.22917        -2.020812      0.735426      0.677742
Ti       1.96791     13.64956     14.65486        -0.124179     -1.053820      0.197085
Ti      13.65529      1.90382      2.21913         0.580565     -0.007019     -0.044770
Ti      13.52327      1.98001     14.73532         2.167455     -0.701431     -0.238721
Ti      13.72442     13.65668      2.24767        -0.625434      0.210964      1.229636
Ti      13.69585     13.70366     14.62200         0.089937     -0.427238     -0.608741
Ti       1.90199      2.00081      6.35688        -0.072032     -0.160431     -0.415696
Ti       1.96582     13.63855      6.43100        -0.161053     -0.239419      0.130068
Ti      13.57936      1.94418      6.33080         0.950936      0.093593      0.292967
Ti      13.67978     13.71947      6.32791        -0.152588     -0.683844     -0.299528
Ti       1.98025      1.87304     10.55853        -0.399667      0.940089     -0.279488
Ti       1.85370     13.56469     10.48402         0.261985      0.137268      0.416094
Ti      13.61125      1.86848     10.41567         0.277053      0.167102     -1.044655
Ti      13.64079     13.63791     10.53437        -0.097465     -1.033835      0.711336
Ti       1.94839      5.81207      2.23235        -0.516819     -0.250695     -1.419250
Ti       1.89957      5.74725     14.65959         0.392067      0.559968      1.149742
Ti      13.70538      5.81847      2.14807        -0.462779      0.269069     -0.521526
Ti      13.67712      5.88047     14.78212        -0.273408      0.684713     -1.069906
Ti       2.02406      5.87744      6.27527        -0.494383      0.204742      0.276117
Ti      13.71468      5.82636      6.23273         0.846269      0.237428      0.034807
Ti       1.92513      5.89950     10.48125        -1.074078     -0.616344     -0.211428
Ti      13.59873      5.76109     10.40973         0.746390      0.421724      1.369531
Ti       1.89622      9.73190      2.24616         0.454276      0.127249     -0.642891
Ti       1.94173      9.74810     14.74214        -1.303900     -0.210073     -0.659521
Ti      13.59247      9.83971      2.28467        -0.054864      0.114780     -0.477919
Ti      13.72156      9.78850     14.66436        -0.106595     -0.662631      0.792848
Ti       1.94685      9.69862      6.39634        -0.856037      0.112789      0.177412
Ti      13.65750      9.70841      6.33026         0.007169      0.591091      0.021742
Ti       1.89085      9.73801     10.52079        -0.556358     -0.291214      0.379640
Ti      13.53182      9.62998     10.58671         0.872703      0.863631     -0.961090
Ti       5.86289      1.84628      2.28346        -0.101433      0.335000     -0.676408
Ti       5.79491      1.93361     14.63004        -0.420931     -0.496708     -0.254496
Ti       5.83050     13.57744      2.12806         1.372625      0.259548     -0.387333
Ti       5.93740     13.66450     14.60442        -1.270732     -0.404268      2.186308
Ti       5.82907      1.86520      6.45146         0.461574      1.643013     -1.016014
Ti       5.83305     13.70733      6.51230         0.490108     -0.728881     -1.265870
Ti       5.89175      2.07945     10.55687        -0.144592     -1.111915      0.699662
Ti       5.88102     13.68553     10.67345        -0.446545     -0.929620     -0.977715
Ti       5.78297      5.74554      2.14979         0.496665      0.545681      1.295145
Ti       5.87293      5.82896     14.64136        -0.676497      0.083512      0.240576
Ti       5.97871      5.92091      6.36276        -0.241495     -0.753737      0.010242
Ti       5.81488      5.93427     10.38999         0.063422      0.107166      1.537408
Ti       5.80962      9.73942      2.15725         0.122871     -0.567822      0.312777
Ti       5.81313      9.74018     14.76512         0.670676     -0.252541     -1.034704
Ti       5.82304      9.75739      6.38831         0.323751     -0.560519     -1.486447
Ti       5.76410      9.75525     10.68575        -0.048235      0.822778     -0.398227
Ti       9.77257      1.94516      2.27237         0.085386     -0.731028     -0.756788
Ti       9.67524      1.96763     14.65310        -0.003188     -0.670813     -0.394355
Ti       9.77863     13.67285      2.21011         0.485560     -0.212875     -0.063779
Ti       9.79428     13.57943     14.67588         0.212130      0.347301      0.327843
Ti       9.73581      1.88891      6.47125        -0.861216      0.219782     -0.928066
Ti       9.73303     13.50635      6.39466        -0.545935      1.280294     -0.476248
Ti       9.75403      1.96627     10.51187         0.307629     -0.723524      1.678598
Ti       9.70779     13.58858     10.64549         0.290136      0.772595     -0.146109
Ti       9.72512      5.76147      2.14535         0.435445      1.524639     -0.056076
Ti       9.72519      5.79405     14.71862         0.755050      0.792651     -0.169797
Ti       9.87936      5.78853      6.37247        -1.912561      0.674203      0.009767
Ti       9.72099      5.82307     10.51732         0.828305      0.662853     -0.147305
Ti       9.79099      9.83815      2.16103        -0.336274     -0.694850     -0.431661
Ti       9.87188      9.76113     14.69214        -0.298704     -0.772551     -0.241937
Ti       9.64203      9.73095      6.24149         0.685886     -0.258057      0.433425
Ti       9.62498      9.73674     10.50100         0.609856     -0.715829      1.279505
O       1.96728      1.97051      0.48895         0.273203     -0.439268      0.535942
O       1.88866      1.68855     13.04233         0.040379      0.527878     -0.993616
O       2.14903     13.52565      0.46721        -0.175241     -0.076208      0.129621
O       1.92339     13.65889     12.90298         0.109393      0.091893     -0.716961
O      13.67786      1.90043      0.43828        -0.375571     -0.003632     -0.258874
O      13.67010      2.00541     12.98975         0.046283     -0.069558     -0.663888
O      13.58562     13.65673      0.49657         0.039862      0.010820     -1.159779
O      13.62222     13.67250     12.81381         0.432089      0.025783      1.074833
O       1.98168      1.93834      4.54421         0.204129     -0.288641      0.516348
O       1.91108     13.57146      4.62396         0.356377      0.490918      0.617942
O      13.61881      1.95748      4.50356         0.251487      0.180707      0.345273
O      13.76047     13.58447      4.54249        -0.020041      0.394971      0.594822
O       1.87255      1.97108      8.75914         0.237388     -0.369380      0.404253
O       2.00057     13.58479      8.71984        -0.083040      0.153970      0.003221
O      13.63436      1.78283      8.57551        -0.036771      0.525704      1.266514
O      13.58853     13.61780      8.79846        -0.196673      0.304683     -1.249131
O       1.89572      5.70718      0.39475         0.266699      0.212953      1.040754
O       2.16282      5.75592     12.90651        -0.693283      0.016360     -0.573085
O      13.70329      5.93785      0.31698        -0.070761     -0.642903      1.203207
O      13.70433      5.91139     13.01108        -0.457028     -0.404423     -0.538198
O       2.05285      6.01872      4.48034        -0.013146     -0.587166      0.148770
O      13.58034      5.81408      4.40902         0.132761     -0.084362      0.494640
O       1.79563      5.80315      8.68664         0.512184      0.138472      0.533639
O      13.77470      5.74511      8.67971        -0.437873      0.255388     -0.931743
O       1.92988      9.75154      0.42806        -0.043116      0.032461      0.818068
O       1.80606      9.55891     12.95361         0.560594      0.465329      0.290983
O      13.67394      9.89750      0.50112        -0.045324     -0.039857      0.234658
O      13.68219      9.68966     12.89895         0.221814      0.175499     -0.559582
O       1.98961      9.59502      4.62650         0.086550      0.152709     -0.622149
O      13.66743      9.72012      4.57992        -0.211486      0.206594     -0.399037
O       1.85918      9.76697      8.76609         0.371716     -0.456090     -0.733140
O      13.48094      9.74574      8.77772         0.355910     -0.690481     -0.065342
O       5.89423      1.93838      0.47951         0.095204     -0.084297      0.083344
O       5.90296      2.03570     12.84742        -0.045503     -0.111894      0.110162
O       5.73848     13.66039      0.34145         0.003846     -0.179561      0.668267
O       5.90780     13.49231     12.89306        -0.019964      0.233590     -1.580148
O       5.77264      1.85226      4.58281         0.155538     -0.182693      1.439404
O       5.90987     13.72288      4.62962        -0.092611     -0.342365      1.533742
O       5.88785      1.95528      8.77139        -0.332519     -0.308063     -0.085523
O       5.85433     13.47711      8.83766        -0.219279      0.544660     -0.079184
O       5.98321      5.68001      0.44379        -0.147377     -0.088740     -0.745611
O       5.89924      5.81143     12.82649        -0.259323      0.003498      0.476024
O       5.82330      5.87382      4.59305         0.264125     -0.225482     -0.207076
O       5.89800      5.95415      8.61256        -0.189373     -0.411495      0.701646
O       5.84321      9.62125      0.39307         0.115327      0.573108     -0.437661
O       5.76344      9.62251     12.93305         0.128847     -0.019095      0.586462
O       5.78241      9.71527      4.57556         0.259962      0.335683      0.388828
O       5.93008      9.80064      8.89531        -0.732393     -0.322109     -1.049473
O       9.67268      1.80599      0.47690         0.278767      0.166193      0.291336
O       9.67267      2.07422     12.83524         0.040019     -0.370834      1.152284
O       9.75728     13.73308      0.43061         0.325467      0.102874     -0.790233
O       9.84578     13.58127     12.91926        -0.514795     -0.350307     -0.814574
O       9.78734      1.93182      4.69953         0.037307     -0.176503     -0.417134
O       9.65687     13.66266      4.61739        -0.022708     -0.761590      0.059522
O       9.74170      1.74660      8.78619         0.300557      0.213845     -1.547854
O       9.81069     13.65699      8.87326         0.011653      0.130703     -0.393435
O       9.86533      5.89697      0.35482        -0.717281     -0.476920      0.267253
O       9.84831      5.81985     12.91336        -0.342155     -0.402338     -0.374532
O       9.88653      5.65658      4.61514        -0.073576      0.144100     -0.212803
O       9.72617      5.92162      8.74499         0.268749     -0.374401     -0.471955
O       9.78469      9.67992      0.32624         0.058218      0.059124      0.416728
O       9.80357      9.74928     12.89095        -0.347871     -0.026383     -0.332983
O       9.85334      9.92020      4.50759        -0.703390     -0.225416      0.045624
O       9.67693      9.74073      8.76942        -0.080249     -0.284671     -0.868055
O       3.96245      2.03107      2.57922        -0.315526     -0.654643     -0.178945
O       3.86727      1.96495     15.05740         0.709900      0.047294     -0.054297
O       4.00179     13.49041      2.70607        -0.240089      0.192286     -0.638289
O       3.84899     13.38120     14.95409         0.589317      0.657533     -0.488057
O       0.08912      1.80682      2.59419        -0.260296     -0.003562     -0.077392
O       0.00925      1.81729     15.17164        -0.148588      0.161050     -0.326177
O       0.04005     13.67985      2.43684         1.031596      0.325910      0.247510
O       0.03491     13.53926     14.94224        -0.550797      0.938288      0.650543
O       3.83177      1.84179      6.82066         0.848667      0.372527     -0.311817
O       3.89497     13.67392      6.78275        -0.007919      0.126347     -0.358964
O      15.56483      2.02154      6.65133         0.447414     -0.386679     -0.236487
O      15.55498     13.69723      6.86599         0.660341     -0.232866     -0.774396
O       3.87901      2.00720     10.84689         0.257025     -0.618396     -0.268917
O       3.90150     13.61691     11.03679        -0.356351     -0.436538     -0.935146
O      15.56867      1.79354     10.88633         0.325533      0.227740     -0.341190
O      15.57725     13.74411     10.75311         0.456996     -0.074097      0.095869
O       3.86292      5.75612      2.37344         0.688539     -0.034609      0.286294
O       3.94101      5.71222     14.97844         0.176986     -0.344176      0.136380
O      15.59680      5.92756      2.46352         0.316165     -0.186956      0.259712
O       0.02129      5.94568     14.92205         0.416534     -0.772825      0.224444
O       3.93954      5.92376      6.69812        -0.456124     -0.146337      0.121704
O      15.60081      5.83761      6.51817         0.092266     -0.420983      0.050909
O       3.85060      5.69040     10.77018         0.846828      0.632687     -0.501429
O      15.56522      5.87504     10.82612         0.298817     -0.594639      0.132715
O       3.93967      9.92625      2.43578        -0.193584     -0.516056      0.379516
O       3.84884      9.76914     15.03800         0.786441     -0.393781     -0.130116
O       0.03206      9.81901      2.69400         0.076073     -0.424425     -0.790006
O       0.05683      9.58957     15.13469        -0.727912      0.659903     -0.488657
O       3.83253      9.64296      6.63914         1.105678     -0.186844      0.741170
O      15.56025      9.79982      6.72220        -0.011692     -0.573217     -0.002448
O       3.76424      9.80263     10.97180         0.815327     -0.476189     -0.301519
O      15.57461      9.73836     10.84625        -0.369733     -0.662802      0.041754
O       7.82398      1.85145      2.65547        -0.050037      0.535415     -0.447346
O       7.73589      1.76952     14.96819         0.662258      0.215784      0.028678
O       7.78733     13.64074      2.33698        -0.390726      0.229742      0.726339
O       7.75348     13.63489     15.01137         0.846182     -0.103543     -0.053268
O       7.80460      1.88026      6.70885        -0.333958      0.029030      0.205456
O       7.77108     13.45825      6.81748        -0.562154      0.914420     -0.229749
O       7.86532      1.87570     10.82300        -1.019454      0.090976      0.018301
O       7.75772     13.52753     10.83626         1.177869      0.503944      0.451217
O       7.80222      5.78438      2.62407        -0.063281     -0.160114     -0.531576
O       7.84906      5.88334     14.87338        -0.777550     -0.348146      0.261673
O       7.88465      5.73081      6.74364        -0.613880      0.122696     -0.364537
O       7.84947      5.83702     10.81227        -1.487426      0.110190     -0.019482
O       7.88223      9.72740      2.35992        -0.885469     -0.154209      0.672723
O       7.79675      9.65272     14.96268        -0.524203      0.067694      0.188841
O       7.74644      9.63326      6.59052         0.042544      0.973723      0.283112
O       7.72084      9.59223     10.89505         0.824815      0.476831      0.294497
O      11.76506      1.94535      2.51880        -0.915077      0.004946     -0.028230
O      11.68350      2.01205     14.89815        -1.289303     -0.443381      0.568224
O      11.68592     13.54381      2.56677         0.405867      0.463695      0.050636
O      11.76971     13.54836     14.95373        -0.462239      0.326622      0.318588
O      11.71643      1.99247      6.59071        -0.693835     -0.422424      0.573019
O      11.73669     13.51636      6.56642        -0.578570      0.451429      0.391228
O      11.74474      1.99264     10.83364        -0.595045     -0.013341     -0.136557
O      11.76211     13.58689     10.92332        -1.140534      0.021775     -0.257600
O      11.74795      5.77159      2.38290         0.165323     -0.213614      0.414640
O      11.71867      5.81157     15.00645        -0.357698     -0.131031      0.236640
O      11.74037      5.79093      6.62472        -0.019160      0.089994      0.380372
O      11.70655      5.76011     10.79714         0.051974     -0.219599     -0.020048
O      11.65270      9.85366      2.54966         1.426940     -0.131244     -0.022461
O      11.76438      9.65865     14.90444         0.031747      0.462426      0.304966
O      11.63489      9.68006      6.68611         0.049509      0.372333     -0.236257
O      11.67946      9.74972     10.86694        -0.613159     -0.203360     -0.095363
O       1.91357      3.82716      2.54724         0.086246      0.992922      0.269571
O       1.86457      3.77918     15.11547         0.231201      0.880757     -0.804173
O       2.30637     15.52621      2.51565        -0.909147     -0.271766     -0.134163
O       2.04298     15.48978     15.18158        -0.269082      0.390441     -0.241749
O      13.84651      3.88063      2.45972        -0.461416      0.068441     -0.328184
O      13.63789      3.89854     15.00613         0.323317     -0.199861      0.418691
O      13.67456      0.02176      2.59019        -0.138344     -0.404306      0.026040
O      13.64285     15.59354     14.98923        -0.152551     -0.361338      0.148842
O       1.96834      3.92029      6.53998         0.212549     -0.064425      0.397369
O       1.88391      0.03303      6.68234         0.040446     -0.658729      0.009827
O      13.63204      3.92514      6.51497        -0.139371     -0.491627      0.391439
O      13.58923      0.00328      6.45763         0.093917     -0.153062      0.325911
O       1.88793      3.84408     10.82304        -0.145627     -0.327474      0.382368
O       1.98096     15.48558     10.87041         0.065126      1.067995     -0.505942
O      13.74228      3.81539     10.71823        -0.157244      0.203862      0.180279
O      13.53740      0.02686     10.91236         0.554749     -0.349114     -0.556065
O       2.01642      7.78284      2.47312        -0.019643      0.311901     -0.166039
O       2.02852      7.67361     15.03477         0.171982      0.267348     -0.110146
O      13.64086      7.89832      2.49154        -0.016491     -0.795381     -0.052430
O      13.69225      7.82698     15.07817        -0.229200      0.124135     -0.040875
O       1.83879      7.75751      6.68321         0.302268      0.071357      0.410633
O      13.69895      7.73203      6.53636        -0.457478      0.417199      0.620874
O       1.79233      7.77000     10.87116         1.157768     -0.415304     -0.429709
O      13.63299      7.70951     10.91639        -0.271521      0.264781     -0.640055
O       1.93767     11.64624      2.65419         0.378702      0.731814     -0.371743
O       1.83340     11.64596     14.95045         0.387719     -0.186130      0.279813
O      13.81452     11.78406      2.58700        -0.578952     -0.873285     -0.171659
O      13.74512     11.68742     15.01011        -0.069214      0.073976      0.011442
O       1.96881     11.62836      6.65839         0.051371      1.196201      0.070251
O      13.64676     11.66737      6.66007        -0.192472      0.147021      0.175436
O       1.79300     11.64064     10.84493         0.556375      1.172503      0.182748
O      13.76262     11.63191     10.74041        -0.451203      0.559561      0.566308
O       5.81720      3.78241      2.60651         0.639731      1.135421     -0.239963
O       5.98617      3.81793     14.99128        -0.312928      0.375670     -0.240098
O       5.84764     15.53918      2.46039        -0.419152     -0.021157      0.228464
O       5.66043     15.52609     14.86601         0.378851      0.491302      0.155591
O       5.82248      3.83749      6.74909        -0.008084     -0.184631      0.006120
O       5.92544     15.58939      6.86463        -0.409531     -0.385166     -0.129676
O       5.87145      3.91617     10.68554         0.300009      0.392093      0.119696
O       5.87660     15.54647     10.88293        -0.151372      0.655228     -0.069324
O       5.86756      7.77833      2.50144        -0.429578     -0.257606     -0.338486
O       5.78514      7.68208     15.12706         0.067361      0.447394     -0.624971
O       5.92569      7.77849      6.64152        -0.359915      0.438173      0.507119
O       5.74226      7.81307     10.71402        -0.241071     -1.474384      0.325974
O       6.04280     11.68893      2.48286        -0.844349     -0.144647     -0.192178
O       5.95639     11.65387     14.98827        -0.434728     -0.760404      0.067652
O       5.73136     11.62802      6.73317         0.194877      0.468771     -0.175232
O       5.87398     11.66012     10.90049        -0.232185     -0.394492      0.591807
O       9.76937      3.86807      2.51695        -0.174488     -0.640499     -0.027831
O       9.68685      3.83745     14.96306        -0.064219     -0.392871      0.279448
O       9.76464     15.53872      2.62084         0.188850      1.274197     -0.065373
O       9.69025     15.45994     14.89836         0.488181      1.483649      0.280672
O       9.76706      3.82257      6.78139         0.201346      0.218059      0.328778
O       9.71163     15.45254      6.79945        -0.088315      0.969699     -0.348078
O       9.69624      3.85319     10.75177         0.300692      0.206753     -0.042909
O       9.79100     15.54701     11.02637        -0.214042      0.239743     -0.518671
O       9.86003      7.70845      2.51927        -0.312029     -0.081197      0.014757
O       9.73184      7.78095     14.84890         0.263963     -0.435434      0.584825
O       9.62271      7.80995      6.58828         0.815390     -0.624142      0.160382
O       9.74343      7.76397     10.83239         0.059918      0.199021      0.176378
O       9.77812     11.71550      2.34430        -0.564143     -0.013213      0.638642
O       9.74162     11.62048     14.93477        -0.186927      0.923477      0.443059
O       9.68976     11.70604      6.72656         0.296738     -1.510699     -0.086378
O       9.70492     11.67771     10.82828        -0.043546     -0.553980      0.224531
