  # total energy = -7881.43264586 
CRSYTAL
PRIMVEC
    15.6080000000000005    0.0000000000000000    0.0000000000000000
     0.0000000000000000   15.6080000000000005    0.0000000000000000
     0.0000000000000000    0.0000000000000000   16.6239999999999988
PRESSURE
-0.71856 -0.765462 -0.62803 -0.060159 0.015346 -0.045655
PRIMCOORD
320 1
Pb       4.02584      3.90202      4.22217        -0.347302     -0.286198     -0.112436
Pb       3.91913      3.92052     16.59905        -0.142987      0.154347     -0.090373
Pb       3.94144      0.06136      4.09737        -0.471276      0.166785     -0.225974
Pb       3.83241     15.56854     16.49428         0.061619      0.221908      1.094209
Pb      15.55572      3.86442      4.10267         0.180110     -0.680631      0.378245
Pb      15.57322      3.79520     16.60271         0.204695      0.017111     -0.158564
Pb      15.57119     15.57835      4.07824        -0.100461      0.703900     -0.050161
Pb       0.01221      0.02364     16.60942        -0.235834     -0.059487      0.251439
Pb       3.84709      3.84967      8.25731         0.223691      0.087222      0.454266
Pb       3.98623      0.07190      8.26401        -0.585870      0.133552     -0.319477
Pb      15.52595      3.93274      8.24739         0.314455     -0.667542      0.474426
Pb       0.03852     15.57769      8.25254         0.012653      0.445974      0.091825
Pb       3.70002      3.97476     12.64105         0.261958      0.026336     -0.853621
Pb       3.81702     15.47695     12.53503         0.668586      0.135023     -0.807389
Pb      15.57051      3.91560     12.54010         0.367737     -0.213538     -0.545999
Pb       0.13294     15.58236     12.47268        -0.777403      0.158890     -0.341391
Pb       3.74210      7.86871      4.00080         0.525235      0.515386      0.792198
Pb       3.86604      7.65788     16.58358        -0.016555      0.497261     -0.781552
Pb       0.03997      7.87823      4.05497         0.012937      0.230128      0.358688
Pb      15.53547      7.75648     16.60649         0.156570      0.087735     -0.576372
Pb       3.90691      7.77300      8.34208         0.277270     -0.125367     -0.373849
Pb      15.38675      7.74764      8.51939         0.357466     -0.110943     -0.497705
Pb       3.91598      7.85165     12.47609        -0.437846     -0.307096     -0.004332
Pb      15.42024      7.72496     12.49579         0.243977      0.086466      0.226813
Pb       3.87325     11.70970      4.08925        -0.019432     -0.317159      0.113239
Pb       3.89750     11.66504     16.54043         0.147721      0.054470      0.286619
Pb      15.56980     11.78446      4.11491         0.145885     -0.679545     -0.058931
Pb      15.58401     11.80537      0.03723         0.265481     -0.304280     -0.166120
Pb       3.84462     11.87088      8.32507         0.245062     -0.691474     -0.632567
Pb      15.54656     11.65994      8.13402         0.095704      0.051572      0.585316
Pb       3.86614     11.71616     12.33239         0.285109     -0.203768      0.204251
Pb       0.03870     11.55634     12.41927        -0.441041      0.102800     -0.353176
Pb       7.75314      3.70066      4.13791        -0.181993      0.533144     -0.200450
Pb       7.74104      3.85729     16.55222        -0.113588     -0.198640     -0.126209
Pb       7.76220     15.49445      4.14079         0.088794      0.266518     -0.413451
Pb       7.80256      0.05439     16.60633        -0.047044     -0.614407     -0.404808
Pb       7.72430      3.81849      8.51885        -0.397514      0.440207     -0.706562
Pb       7.85965     15.56663      8.36335        -0.159895      0.245164     -0.596952
Pb       7.78228      3.71777     12.48466         0.540941      0.290371      0.579576
Pb       7.85942     15.60349     12.51389        -0.211373     -0.106020      0.158486
Pb       7.84395      7.80693      4.06792        -0.066748     -0.067908     -0.162109
Pb       7.71998      7.82434     16.54022         0.212892      0.169258      0.189200
Pb       7.94294      7.86742      8.23013        -0.844314     -0.461561      0.917644
Pb       7.93309      7.62347     12.42020        -0.195060      0.203037      0.399148
Pb       7.84067     11.74355      4.04857        -0.179387     -0.584441      0.104001
Pb       7.77034     11.71475     16.48726         0.103901      0.134155      0.650312
Pb       7.71058     11.70871      8.26374         0.054667     -0.378982     -0.264664
Pb       7.82265     11.57715     12.43742        -0.074867     -0.114996     -0.060047
Pb      11.76762      3.86684      4.30131        -0.226376     -0.275728     -0.112511
Pb      11.74081      4.07719      0.19455         0.260073     -0.511625     -0.373806
Pb      11.49774      0.01971      4.17695         0.773823     -0.168364     -0.264593
Pb      11.64446     15.59752     16.52020         0.533528     -0.520592      0.274138
Pb      11.64565      4.08540      8.40796         0.000230     -0.325847     -0.540198
Pb      11.53973      0.03089      8.31591         0.675815      0.070640      0.027517
Pb      11.80676      3.75370     12.45729        -1.052945      0.191797      0.954582
Pb      11.59714     15.48878     12.37175         0.423689      0.157385      0.116976
Pb      11.70907      7.62602      3.99447        -0.561977      0.486969      0.582629
Pb      11.67484      7.81854      0.02308         0.160655     -0.267364     -0.414048
Pb      11.65800      7.82088      8.23166        -0.160907      0.310757      0.034739
Pb      11.48793      7.92934     12.50118         0.843793     -0.396676      0.176488
Pb      11.77733     11.49688      4.28361        -0.255048      0.555721     -0.479659
Pb      11.86673     11.68940     16.58723        -0.639263      0.217281     -0.011695
Pb      11.76498     11.84503      8.40579        -0.132391     -0.533448     -0.130699
Pb      11.68935     11.72480     12.37961         0.210222      0.065678     -0.400549
Ti       1.91728      2.03666      2.10711         0.066201     -1.108592      1.006999
Ti       1.98373      1.91663     14.52522        -0.730436      0.554071      0.830289
Ti       1.91534     13.73289      2.18646        -0.171536      0.350869     -0.919282
Ti       1.84891     13.62492     14.62752         0.593431     -0.522413      2.300078
Ti      13.53247      1.91874      2.19359         1.090151     -0.322058     -0.540005
Ti      13.70768      1.82965     14.62760        -0.396052      0.094777      0.812045
Ti      13.58094     13.63834      2.26383        -0.658668      0.486162     -0.062504
Ti      13.68955     13.57854     14.61781        -0.888719      0.428152      0.732374
Ti       1.93872      1.93060      6.32863        -0.156839     -0.171827     -0.397341
Ti       1.91485     13.59513      6.29166         0.624392      0.771169      0.103200
Ti      13.61211      1.90468      6.51894         0.285515     -0.187234      0.248370
Ti      13.60196     13.61421      6.41107        -0.584858      0.628970     -0.142643
Ti       1.93898      1.88151     10.53416         0.274549      1.059908     -0.339600
Ti       1.91354     13.53987     10.42839         0.060843      1.162005     -0.281904
Ti      13.65270      1.96294     10.56272         0.292614     -0.788689     -1.115603
Ti      13.74232     13.72403     10.51163        -0.941213     -0.443903     -0.008736
Ti       2.02792      5.78050      2.26921        -1.290933     -0.243664     -1.012563
Ti       1.85287      5.86116     14.68733         0.979682      0.294023      0.672137
Ti      13.72257      5.78904      2.29451        -0.857891     -0.968175     -1.577867
Ti      13.63281      5.64797     14.65883        -0.075450      1.286662      0.057880
Ti       1.87040      5.81820      6.44050         0.969155     -0.345616     -0.366241
Ti      13.58223      5.87590      6.45014         0.092451     -0.515414      0.655608
Ti       1.95468      5.83422     10.48452         0.151311     -0.865544      1.066317
Ti      13.59408      5.82350     10.64865        -0.065641      0.710667     -0.648352
Ti       1.97051      9.80261      2.06692        -0.410752      0.333798     -0.416054
Ti       1.93584      9.75688     14.62056        -0.222699     -0.475110      0.728102
Ti      13.62113      9.68319      2.17865         0.531572      0.761442      0.184114
Ti      13.63163      9.67466     14.70015         0.234562     -0.368478      0.060717
Ti       1.97239      9.66017      6.41166         0.577998      0.254315      0.359182
Ti      13.74767      9.68784      6.28724        -0.953390      0.252391      0.257383
Ti       1.99576      9.68286     10.48806        -0.016980     -0.297149     -0.089054
Ti      13.70234      9.68404     10.45724        -0.764848      0.764261      0.984525
Ti       5.81676      1.92146      2.07416        -0.550566      0.616423      0.165165
Ti       5.81816      1.84943     14.68486         0.784347     -0.008239     -0.209421
Ti       5.79928     13.65912      2.21669         0.190032     -0.072604     -1.254342
Ti       5.81563     13.63329     14.66218         0.183591     -0.196043      0.864206
Ti       5.89411      1.97354      6.36790        -0.525416      0.241389     -0.418277
Ti       5.80947     13.65020      6.23876        -0.071106     -0.248036      0.244482
Ti       5.79872      1.88416     10.68064        -0.821231      0.131299     -0.558958
Ti       5.93521     13.63124     10.47132        -1.194401      0.715254      1.210940
Ti       5.79020      5.94486      2.13570         1.260238     -1.190650     -0.575408
Ti       5.91373      5.78599     14.62881        -1.045180      0.486538      1.738900
Ti       5.81685      5.82439      6.33453        -0.518940     -0.070403      0.847882
Ti       5.83365      5.74934     10.68147        -0.075584     -0.036432     -1.559349
Ti       5.87217      9.80930      2.13436        -0.345482      0.442055      0.130234
Ti       5.77452      9.76315     14.59501         0.541381      0.112755      0.605726
Ti       5.82891      9.68863      6.33906        -0.699283      0.338918     -0.621282
Ti       5.89543      9.64258     10.54903        -0.198916      0.698613     -1.061413
Ti       9.68538      1.90078      2.13829         0.578991     -0.477652      0.286997
Ti       9.91804      1.93036     14.73503        -0.238240      0.034360     -1.059046
Ti       9.75332     13.57708      2.26641         0.625325     -0.158433     -0.093046
Ti       9.74529     13.58307     14.63912         0.452822      0.283564      0.144005
Ti       9.71660      2.00800      6.38530         0.117610      0.564835      0.015779
Ti       9.73866     13.66791      6.29099        -0.326909     -0.377608      0.327939
Ti       9.76174      1.93412     10.56670         0.382111      0.023939      0.142452
Ti       9.63917     13.62239     10.43254         2.154239     -0.066530     -0.065324
Ti       9.68168      5.70016      2.20773         0.200366      1.906921     -0.370448
Ti       9.77964      5.74377     14.81034         0.396693      0.458829     -1.210848
Ti       9.58585      5.89760      6.30859         0.429348     -1.096506     -0.114447
Ti       9.78499      5.80635     10.61602        -0.380966     -0.298714     -0.260030
Ti       9.75147      9.69971      2.21852        -0.241803      0.663917     -0.947629
Ti       9.67437      9.73380     14.78720         0.654432      0.281644      0.980471
Ti       9.76363      9.77220      6.38052         0.562310      0.386232     -0.711641
Ti       9.76968      9.72002     10.51767         0.603308      0.250470     -1.424639
O       1.80629      1.97036      0.35484         0.197359      0.022311     -0.851448
O       1.95444      1.95599     12.73424        -0.094366     -0.047020      1.146260
O       1.62224     13.82173      0.33422         0.639419     -0.644810      1.167580
O       1.83343     13.50931     12.91224         0.369625      0.324087     -1.697656
O      13.66798      1.97615      0.38274        -0.233533      0.059996      0.684131
O      13.60395      1.81679     12.88567        -0.000213      0.287799     -1.319073
O      13.65771     13.74974      0.48836         0.267763     -0.540480     -0.270667
O      13.69881     13.59332     12.87625        -0.031016     -0.304412     -0.943617
O       1.97447      1.85605      4.50175        -0.130064      0.210405      0.735382
O       2.05534     13.63848      4.48308        -0.498615      0.031147      0.328081
O      13.59445      1.89927      4.77631         0.042813      0.151573     -1.038809
O      13.44365     13.63739      4.66026         0.441700      0.102562     -0.453529
O       2.07747      1.82325      8.74385        -0.411310      0.097806      0.390774
O       1.92395     13.58927      8.63448         0.032662     -0.012489      0.483647
O      13.78191      1.96543      8.75460        -0.532652      0.145312      1.222207
O      13.72040     13.45333      8.75609        -0.003938      0.055718     -0.911494
O       1.97014      5.83576      0.48053         0.238069      0.141014      0.129968
O       1.97684      5.89861     12.93886        -0.565798     -0.383682     -1.033184
O      13.55133      5.71174      0.44185         0.379035     -0.147198      0.843476
O      13.70322      5.74376     12.85686         0.127313      0.214531      0.212064
O       1.88938      5.57033      4.67126        -0.143796      1.037858     -0.805535
O      13.62486      5.71809      4.71092         0.144638      0.139252     -0.949951
O       2.05627      5.67971      8.73668        -0.343855      0.802155      0.090176
O      13.62369      5.95058      8.80280        -0.294467     -0.256233      0.018607
O       2.13065      9.78280      0.28658        -0.734349     -0.291403      0.817590
O       2.10560      9.77260     12.81609        -0.830646      0.104137      0.447820
O      13.53413      9.61822      0.39786         0.250251      0.083861      0.525131
O      13.66753      9.58809     12.91258         0.098832      0.504893      0.155537
O       1.89009      9.70832      4.65757        -0.145593     -0.134535     -1.437120
O      13.81901      9.69021      4.49307        -0.353614      0.047148      0.039975
O       2.07350      9.69009      8.71494        -0.131811      0.225988     -0.344417
O      13.69948      9.80553      8.67459         0.045222     -0.810431     -0.251167
O       5.77078      1.94280      0.27936         0.378585     -0.298081     -0.075334
O       5.90564      1.76368     12.89251         0.057971      0.291177      0.516747
O       5.93369     13.59841      0.44243        -0.083787      0.145605      0.252884
O       5.67071     13.74615     12.92348         0.268996     -0.243495     -0.912485
O       5.90735      2.13464      4.52832        -0.176115     -0.561409      0.860809
O       5.64764     13.59426      4.44422         0.413039      0.214070      0.433049
O       5.86317      2.04604      8.82969         0.241483     -0.652067      0.583112
O       5.88000     13.72349      8.71420         0.147781      0.120920     -0.441311
O       5.75058      5.80237      0.29523        -0.096807      0.416894      1.276482
O       5.87132      5.78013     12.90672         0.398423      0.481811     -0.747129
O       5.79846      5.69509      4.55816         0.181809      0.308225     -0.231135
O       5.76549      5.73955      8.86762         0.092013      0.041647      0.922023
O       5.80237      9.86926      0.37294         0.046940     -0.092048      0.082714
O       5.96078      9.87430     12.81143        -0.091522     -0.233438     -0.352521
O       5.80152      9.74437      4.52652         0.308237      0.075137      0.474641
O       5.78132      9.74464      8.73599         0.114145     -0.128993      0.342197
O       9.83740      1.98120      0.34781        -0.354885     -0.302228      0.546704
O      10.02498      1.81784     12.90087        -0.908295     -0.109771      0.862933
O       9.84418     13.63735      0.53426        -0.231524      0.010859     -1.489262
O       9.89903     13.78138     12.85373        -0.587804     -0.793831     -0.164784
O       9.62819      1.95966      4.58962        -0.103833     -0.241286     -0.043412
O       9.77300     13.77664      4.46873        -0.154232     -0.455679      1.000337
O       9.68309      2.05541      8.76342         0.070209     -0.140661     -0.029939
O       9.54452     13.58983      8.63060         0.382816      0.415217      0.657314
O       9.89708      5.77757      0.36589        -0.437499     -0.177983      0.543022
O       9.75785      5.93681     13.00323        -0.147851      0.278008      0.049968
O       9.49351      5.93354      4.49577         0.464868      0.124454      0.416527
O       9.72683      5.79621      8.83168         0.388857     -0.167273     -0.099367
O       9.62113      9.84457      0.41428         1.053145     -0.415319      0.631959
O       9.72466      9.69747     13.02867        -0.045975     -0.011416     -1.871663
O       9.68884      9.70453      4.55611        -0.191795      0.033426      0.571628
O       9.89613      9.69010      8.73134        -0.472455      0.008569     -0.170540
O       3.89238      1.93334      2.36527        -0.325247     -0.204255      0.315344
O       3.89820      1.83856     14.78524        -0.159834      0.313862      0.408022
O       3.78037     13.80907      2.34097         0.163333     -0.308655      0.086069
O       3.91826     13.72994     15.24956        -0.825501     -0.958168     -1.592037
O      15.44852      2.04464      2.47646         0.994175      0.084009      0.299514
O       0.00171      2.03120     14.81887         0.901729     -0.437471      0.162921
O      15.53715     13.57651      2.71794         0.174645      0.541832     -0.504121
O      15.55729     13.59390     14.92986         0.871750      0.042257      0.076240
O       3.89547      2.01539      6.67243         0.712664     -0.299969     -0.204033
O       3.89843     13.54675      6.62403         0.105123      0.180037      0.131034
O       0.03556      1.87558      6.70365         0.114961      0.084216      0.027816
O      15.49324     13.64571      6.51695         1.582201     -0.271563      0.143522
O       3.93035      2.04178     10.86061        -0.316914     -0.669002      0.146701
O       3.82363     13.71562     10.82122         0.202549     -0.506123     -0.319107
O      15.55565      1.95805     10.93161        -0.010054      0.204287     -0.143350
O       0.00413     13.58698     10.79344         0.450750      0.044906      0.376512
O       3.88171      5.69174      2.55262         0.613023      0.851946     -0.090270
O       3.83536      5.92844     14.86912         1.045342     -0.250749      0.615658
O      15.56817      5.58898      2.47445         0.155018      0.738266      0.249463
O      15.59938      5.82239     15.02110        -0.586546     -0.364461      0.085757
O       3.82388      5.65330      6.70402         1.018753      0.637322     -0.317170
O      15.56955      5.92842      6.92186        -0.148218     -0.291573     -0.718921
O       3.94646      5.73302     11.02782        -0.607438      0.400733     -0.338588
O      15.56575      5.88431     10.83443         1.050556     -0.116690     -0.187897
O       3.81976      9.85195      2.41127         0.236306     -1.003772      0.684998
O       3.92564      9.67158     14.91924        -0.406747      0.468413     -0.262053
O      15.57512      9.62514      2.41522        -0.081597      0.267689     -0.091752
O       0.03618      9.77400     15.03030         0.071444     -0.183692     -0.230754
O       3.90127      9.76138      6.47495         0.554212      0.353294      0.836968
O       0.03242      9.68718      6.66886        -0.657977      0.035754      0.241547
O       3.91418      9.78785     10.90025         0.856190      0.357678     -0.253379
O       0.04397      9.51899     10.78195         0.049581      0.509012      0.124462
O       7.75865      1.83341      2.43751         0.892117      0.323044     -0.184586
O       7.80239      1.99516     14.96727        -0.239369     -0.656152      0.143349
O       7.77032     13.54607      2.50330        -0.151713      0.406442      0.511050
O       7.84958     13.58517     14.93366        -0.320568      0.476709     -0.152524
O       7.75271      1.94301      6.78901         0.252463     -0.193559     -0.243371
O       7.81945     13.76419      6.46786        -0.745300      0.012973      0.189940
O       7.89424      1.74190     10.96073        -0.701809      0.793923     -0.128800
O       7.86156     13.76029     10.77078        -1.383470     -0.192967      0.445471
O       7.69751      5.96450      2.45297         0.108058     -0.415284     -0.391049
O       7.83765      5.87276     15.02324        -0.821657     -0.019954      0.030093
O       7.76940      5.89409      6.84589        -0.442095      0.294743     -0.707728
O       7.84796      5.86434     10.87681        -0.563304     -0.239753      0.396172
O       7.78613      9.86759      2.37638        -0.510653     -0.469269      0.677031
O       7.78700      9.74699     15.07180        -0.448637      0.164582     -0.509820
O       7.82228      9.63680      6.72034        -0.472579      0.481242     -0.222437
O       7.90254      9.75986     10.70043        -1.323181     -0.074708      0.640849
O      11.66428      1.90834      2.62304        -1.264965      0.153147     -0.294409
O      11.80952      1.98780     15.01664        -1.288049     -0.440786      0.111374
O      11.70529     13.61718      2.57005        -0.118315      0.136667      0.025128
O      11.74776     13.52284     14.94395         0.061093      0.307026      0.240756
O      11.63433      2.02786      6.63906        -0.401066     -0.342353      0.601170
O      11.63458     13.66343      6.78875         0.095892      0.122410      0.021671
O      11.65688      1.78100     10.83060         0.904399      0.997000     -0.348541
O      11.77424     13.52775     10.68900        -0.607624     -0.006805      0.233139
O      11.68851      5.79547      2.55170        -0.879451     -0.278355      0.172373
O      11.74134      5.68739     14.95525        -0.361347      0.495556      0.349423
O      11.61933      5.81863      6.70040         0.492045      0.109864     -0.009238
O      11.68897      5.79928     10.90856        -0.366128      0.133060     -0.062156
O      11.69844      9.75734      2.68577         0.119794     -0.769777     -0.774986
O      11.72702      9.83116     15.03067        -0.019680     -0.485981     -0.062766
O      11.71324      9.68339      6.57152        -0.192313      0.131759     -0.050038
O      11.71090      9.72725     10.74855         0.090904     -0.315915      0.747892
O       1.96558      3.87836      2.42108        -0.165860      0.005931      0.358070
O       1.96889      3.89521     15.01365         0.163017     -0.576708     -0.578037
O       1.78434      0.06643      2.34877        -0.231522     -0.687768      0.635039
O       1.98869     15.58585     14.82352        -0.593939      0.393927     -0.144543
O      13.43483      3.84191      2.74755         0.762283      0.270601     -0.806037
O      13.65293      3.81508     14.86998         0.446363      0.283061      0.264447
O      13.63181      0.00449      2.53078         0.089045     -0.085761      0.250135
O      13.72793     15.55291     14.98368        -0.343319     -0.280504     -0.098224
O       1.91511      3.83526      6.66063        -0.562708     -0.149252      0.372367
O       2.08381     15.54839      6.70599        -0.491029     -0.264873     -0.356184
O      13.59602      3.83382      6.92298         0.211749      1.345309     -0.697007
O      13.71077     15.60114      6.93182        -1.040750     -0.540582     -0.591805
O       1.91965      3.88756     10.86419        -0.092516      0.510325      0.206500
O       1.82644      0.01594     10.88098         0.524257     -0.929576     -0.174744
O      13.48817      3.92738     10.91668         1.019036     -1.224505     -0.628161
O      13.64789     15.59275     10.67079         0.334092     -0.349713      0.330873
O       1.83253      7.75671      2.55203         0.806907     -0.179788     -0.163703
O       1.85715      7.80677     14.97420         0.221942      0.187541      0.207631
O      13.58614      7.66342      2.45872         0.360289      0.724272      0.405375
O      13.72091      7.70530     15.01005        -0.380277      0.457066      0.103274
O       2.11554      7.75901      6.63594        -0.497907     -0.393370      0.116323
O      13.62726      7.80417      6.61342         0.078556     -0.496204      0.365614
O       2.17470      7.81431     10.72865        -0.303014     -1.279491      0.096784
O      13.64159      7.71955     10.95496        -0.265358      0.666840     -0.466507
O       1.89091     11.69994      2.32821        -0.269284      0.244588      0.438197
O       2.01295     11.71555     14.96105        -0.168274     -0.015662     -0.023917
O      13.60028     11.65104      2.43114         0.362220     -0.333082      0.332260
O      13.78610     11.59542     15.09682        -0.532125      1.016584     -0.348368
O       1.94347     11.70601      6.68929        -0.218219      0.055052     -0.129229
O      13.51952     11.64379      6.54786         0.654270      0.088686      0.399471
O       1.91976     11.69177     10.74953         0.000087     -0.402521      0.153071
O      13.68062     11.52433     10.77053         0.477027      0.529261      0.732219
O       5.89021      3.80356      2.31163        -0.035876      1.009384      0.420072
O       5.79664      3.88996     15.02589         0.144484     -0.119639     -0.599242
O       5.85221     15.59692      2.50976         0.024055     -0.003483      0.210442
O       5.84537     15.46719     15.12045         0.464527      2.220247     -0.345827
O       5.90035      3.93059      6.74010         0.134081     -0.574629     -0.238827
O       5.75047      0.01253      6.45901         0.145374      0.095306      0.421839
O       5.94839      3.85188     11.08004         0.202305     -0.300013     -0.647034
O       5.80654     15.58300     10.98961         0.187594     -0.190940     -0.746948
O       5.76611      7.85252      2.38607        -0.354880     -0.604402      0.084496
O       5.83639      7.91533     15.04337         0.304902     -1.466723     -0.482780
O       5.72215      7.76220      6.60568         0.314803     -0.020242      0.133729
O       5.83722      7.83144     10.82743         0.047597     -0.744103      0.357321
O       5.64157     11.74679      2.47338         0.493400     -0.502179      0.228348
O       5.84345     11.75000     14.87013        -0.195306     -0.984931      0.324731
O       5.93333     11.76545      6.68548        -0.040019     -0.493843     -0.206659
O       5.98516     11.78353     10.73924        -0.285345     -0.190264      0.366517
O       9.64073      3.91011      2.43894         0.028859     -1.320549      0.180957
O       9.67786      3.85497     14.89378         0.237050      0.058275      0.356420
O       9.71310     15.57788      2.48048        -0.033881      0.755866      0.101778
O       9.75090     15.56209     14.96031         0.234141      0.450825      0.580440
O       9.62039      3.99379      6.49859         0.150945     -0.889434      0.585563
O       9.77290      0.01233      6.69139        -0.230159      0.252051      0.116776
O       9.71036      3.85787     11.06887         0.213534     -0.246625     -0.889753
O       9.82109     15.56093     10.71810        -0.095218     -0.569917     -0.102781
O       9.73194      7.73404      2.43098         0.081200      0.925220      0.228667
O       9.80165      7.85284     15.09715         0.020414     -0.755269      0.096716
O       9.74824      7.80314      6.73253         0.083146     -0.101602     -0.218158
O       9.75748      7.75479     10.83286         0.081164      0.466493      0.415612
O       9.74670     11.64448      2.57446         0.174978      0.172984      0.334371
O       9.72735     11.70869     14.93206         0.075391     -0.021784      0.059068
O       9.66819     11.73085      6.73706         0.197226     -0.367409     -0.823183
O       9.74859     11.66534     10.84165        -0.071082      0.596012      0.134028
