  # total energy = -7881.63167840 
CRSYTAL
PRIMVEC
    15.6080000000000005    0.0000000000000000    0.0000000000000000
     0.0000000000000000   15.6080000000000005    0.0000000000000000
     0.0000000000000000    0.0000000000000000   16.6239999999999988
PRESSURE
-1.13363 -1.4386 -2.05865 0.211688 -0.449108 -0.046223
PRIMCOORD
320 1
Pb       3.75271      3.83191      4.15577         0.184375     -0.243847     -0.081353
Pb       3.75944      3.75583     16.52228         0.595123      0.402046      0.325418
Pb       3.91625     15.45246      4.26156         0.099375      0.312484     -0.717223
Pb       4.01232      0.00700      0.01123        -0.218348     -0.099821     -0.554105
Pb       0.02588      3.93866      4.16010        -0.045677     -0.206290     -0.218666
Pb       0.01184      3.92741      0.01649         0.093637     -0.104025     -0.214926
Pb       0.05776     15.55240      4.29895        -0.029871     -0.023410     -0.784723
Pb      15.59991     15.59320     16.62319        -0.094187     -0.260674      0.039746
Pb       4.06010      3.98240      8.25726        -0.275799      0.014108     -0.698915
Pb       3.88821     15.46755      8.33416        -0.307255      0.450659     -0.596659
Pb       0.05554      3.93253      8.28677         0.397888     -0.090832     -0.388188
Pb      15.54102     15.58472      8.38186        -0.019685     -0.151895     -0.501101
Pb       3.92906      3.78240     12.36982        -0.010807      0.811570      0.485105
Pb       3.97323      0.15004     12.42974        -0.294366     -0.201148      0.464645
Pb      15.55034      3.95696     12.48107        -0.146695     -0.109343     -0.343202
Pb      15.59345     15.46450     12.30363        -0.726736      0.534299      0.945120
Pb       3.97417      7.69276      4.10467        -0.165973      0.433770     -0.051584
Pb       3.89044      7.84966      0.04902        -0.111619     -0.000500     -0.614541
Pb      15.46350      7.71518      4.14703        -0.121763      0.155118     -0.402051
Pb      15.59616      7.76386      0.01455         0.068202     -0.110521     -0.431968
Pb       3.82137      7.82326      8.30699         0.161815     -0.496508     -0.280323
Pb       0.08902      7.80041      8.13215        -0.322338      0.013255      0.495241
Pb       3.80809      7.76756     12.41624         0.273810     -0.407833      0.111406
Pb       0.02765      7.73997     12.36847        -0.634226      0.233037      0.236377
Pb       3.95247     11.60439      4.25815        -0.033179      0.149086     -0.763991
Pb       3.87964     11.68974      0.06002        -0.251323     -0.234422     -0.396275
Pb       0.05384     11.61760      4.19360        -0.759103      0.565032     -0.210655
Pb      15.60633     11.55488     16.53935        -0.136055      0.476575      0.286317
Pb       3.91961     11.58725      8.42485        -0.314429      0.331696     -0.533817
Pb       0.05623     11.73695      8.34761        -0.513275      0.077857     -0.078517
Pb       3.77876     11.67703     12.54413        -0.006755      0.116989     -0.426164
Pb      15.40054     11.84006     12.50694         0.357397     -0.626968     -0.100196
Pb       7.88127      4.01185      4.11485        -0.485634     -0.306604     -0.260770
Pb       7.80645      3.77721      0.08527        -0.233734      0.246118     -0.331551
Pb       7.91278      0.05681      4.21609        -0.410471     -0.574256     -0.425043
Pb       7.80819     15.49722     16.54371        -0.137979     -0.232875     -0.110055
Pb       7.92112      3.86494      8.15691        -0.447958      0.402459     -0.080550
Pb       7.69973      0.01926      8.24520         0.182884     -0.390718      0.089006
Pb       7.82808      3.96387     12.57056         0.531720      0.143337     -0.740011
Pb       7.75408     15.60012     12.35392         0.614734      0.483431      0.298408
Pb       7.88250      7.77322      4.18538        -0.435939      0.148580     -0.657512
Pb       7.74340      7.56603      0.09147         0.405513      0.993656     -0.719774
Pb       7.70025      7.74018      8.31770         0.119393     -0.052876     -0.189016
Pb       7.64080      7.98334     12.54419         0.313234     -0.483684      0.042760
Pb       7.79131     11.61439      4.15633         0.087721      0.320257     -0.490851
Pb       7.87617     11.64761      0.05436        -0.236579     -0.222524     -0.476379
Pb       7.90339     11.60017      8.45073        -0.203897      0.226343     -0.440996
Pb       7.74817     11.83959     12.48440         0.232524     -0.258849      0.063508
Pb      11.57442      3.88791      3.94541         0.483607     -0.030396      0.056708
Pb      11.61531      3.70632     16.58353         0.418884      0.223169     -0.133313
Pb      11.88492      0.03949      4.15922        -0.262861     -0.114815     -0.447909
Pb      11.78704     15.59733     16.58124        -0.373341     -0.055658      0.093458
Pb      11.67180      3.71612      8.17794        -0.009880      0.448809      0.263955
Pb      11.82628     15.50499      8.36468         0.165205     -0.245254     -0.165521
Pb      11.54771      3.94794     12.32813         0.151427     -0.049629      0.379042
Pb      11.63374      0.08873     12.55317         0.051511     -0.283227     -0.155778
Pb      11.65268      8.09568      4.22547         0.442479     -0.689158     -0.278008
Pb      11.79146      7.74172     16.58820        -0.235827      0.362248     -0.455555
Pb      11.70973      7.68123      8.36285         0.194305      0.577618     -0.470950
Pb      11.84284      7.68907     12.43148        -0.249968      0.466702      0.250014
Pb      11.67947     11.98392      4.08289         0.163375     -0.726762      0.048938
Pb      11.54860     11.67234      0.06472         0.538614      0.043708     -0.638117
Pb      11.52993     11.57471      8.23608         0.377696      0.259425      0.284006
Pb      11.68432     11.54318     12.54594        -0.051185      0.156610     -0.131834
Ti       1.89842      1.91207      2.19213        -0.187285     -0.112392      0.004003
Ti       1.83529      1.84246     14.65027         0.449384      0.272252      0.180012
Ti       1.94784     13.59395      2.22335        -0.785363      0.361051      0.720365
Ti       1.93873     13.59411     14.62395        -0.729623      0.161574      0.715709
Ti      13.62068      1.94653      2.15993         0.264780     -0.150553     -0.172738
Ti      13.54840      1.99413     14.55915        -0.308317     -0.097463      1.354772
Ti      13.73275     13.68555      2.18312         0.046968     -0.407851     -0.383414
Ti      13.61816     13.66757     14.72243        -0.100724     -0.807985     -0.575547
Ti       1.85459      1.95816      6.39523         0.623166      0.116705      0.424428
Ti       1.89589     13.62133      6.36181        -0.152420      0.401512     -0.062579
Ti      13.62215      2.01452      6.27160         1.574833     -0.828321     -0.222294
Ti      13.64778     13.65796      6.39141        -0.011153     -0.595522     -0.753726
Ti       1.94144      1.93956     10.53495        -0.397461     -0.076778     -0.998667
Ti       1.96538     13.67149     10.53562        -0.963450     -0.681196      0.510831
Ti      13.60439      1.98315     10.54049         0.302804     -0.846769     -0.007450
Ti      13.56000     13.52484     10.57231        -0.013788      1.276084     -0.472042
Ti       1.95488      5.89426      2.18413        -1.290014     -0.324234     -0.392362
Ti       2.03725      5.73052     14.57531         0.307857      1.320583      0.316368
Ti      13.55208      5.89009      2.14864         0.232521      0.126396     -0.472245
Ti      13.68516      5.82231     14.61182        -0.887403      0.436295      0.865257
Ti       1.90823      5.89842      6.23193         1.258754     -1.207010      0.260746
Ti      13.64279      5.78826      6.28959         0.809032      1.246166     -0.675761
Ti       1.97022      5.72554     10.52834        -0.195754      0.683752     -0.987475
Ti      13.62257      5.81525     10.35265         0.175275      0.049042      1.734250
Ti       1.83676      9.73061      2.29277         0.942564     -0.041375     -0.944035
Ti       1.96009      9.69460     14.65437        -0.409303     -0.327067      0.588205
Ti      13.61124      9.76213      2.24072        -0.808309      0.500237     -0.462136
Ti      13.66323      9.69356     14.67233        -0.573685      0.035226     -0.180325
Ti       1.86291      9.79357      6.27937         0.290022     -0.068760     -0.005565
Ti      13.61359      9.77527      6.42104        -0.463883     -0.259246      0.016269
Ti       1.90804      9.71231     10.60419        -1.368499      0.648283     -0.761680
Ti      13.62480      9.67767     10.38512         0.073816      0.390491      1.054551
Ti       5.80623      1.94191      2.21010        -0.246878     -0.149268      1.538174
Ti       5.85147      2.02248     14.59702        -1.038805     -0.166291      0.306863
Ti       5.81029     13.64215      2.19963         0.753908     -0.020645      0.774390
Ti       5.79458     13.60580     14.60382         0.486688      0.573325      1.148713
Ti       5.73241      1.88932      6.28742        -0.213342      1.189773     -0.576373
Ti       5.82506     13.61667      6.39986         0.384802     -0.192622      0.654556
Ti       5.84829      2.04307     10.45977         0.655336      0.234863     -0.118794
Ti       5.77955     13.74550     10.57576         0.930834     -0.587203     -0.383109
Ti       5.82348      5.85101      2.12602         0.269426     -0.207072      0.078239
Ti       5.89801      5.90387     14.59370        -0.499002     -0.134387      1.045884
Ti       5.90250      5.94241      6.30886        -0.479545     -0.817003      0.680293
Ti       5.86237      5.88903     10.46665         0.172826     -0.056855      0.604792
Ti       5.79401      9.71417      2.18658         0.310276      0.361708     -0.562895
Ti       5.84641      9.76334     14.71340         0.420263     -0.123510      0.818331
Ti       5.74063      9.86279      6.31793         0.497179     -0.683750      0.207967
Ti       5.72896      9.81520     10.56769         0.534556     -0.206497     -0.171425
Ti       9.65439      1.88107      2.17039         0.308097      0.173844      0.384865
Ti       9.63083      1.90347     14.67830         0.969622      0.257840     -1.172190
Ti       9.69104     13.69545      2.18944        -0.112192     -0.235303     -0.060091
Ti       9.77461     13.66033     14.64689         0.018481     -0.240031      0.029963
Ti       9.76479      1.75025      6.34676        -0.560842      0.847529     -0.933549
Ti       9.73833     13.59044      6.31621        -0.634926      0.032594     -0.671937
Ti       9.75250      1.98702     10.39812        -1.088939     -0.003853      0.533353
Ti       9.79135     13.64410     10.51021        -0.531392     -0.186773     -0.446046
Ti       9.76660      5.91292      2.13518         0.170636     -0.178256     -0.035462
Ti       9.78613      5.83932     14.61478        -0.517768      0.620051     -0.366491
Ti       9.89568      5.80823      6.30660        -1.490296      0.109140      0.523439
Ti       9.69896      5.94122     10.42864        -0.346029     -0.754710     -0.454823
Ti       9.75369      9.76166      2.18531        -0.915828      0.436751     -0.194827
Ti       9.74785      9.69113     14.65054         0.211162     -0.729944      0.164859
Ti       9.65051      9.67094      6.31235         0.199951      1.508917      1.046295
Ti       9.63343      9.74134     10.61666         1.048127      0.711057     -0.836329
O       1.92478      2.01594      0.37061        -0.342132     -0.163692      0.058679
O       1.99700      2.02660     12.88360        -0.288537     -0.305689      0.442557
O       1.86202     13.55876      0.48754        -0.002816      0.210143     -0.776179
O       1.83552     13.65972     12.83351         0.584119     -0.299532      0.469037
O      13.48086      1.83533      0.34813         0.304015      0.454976      0.410159
O      13.43904      2.13642     12.83216         0.284790     -0.313981     -1.035487
O      13.73844     13.68895      0.34607        -0.335172      0.120490      0.316740
O      13.50476     13.53646     12.88487         0.255663      0.059136      0.361385
O       1.75711      1.97860      4.62421         0.471126     -0.282233     -0.680145
O       1.75607     13.65224      4.53909         0.462451     -0.081718      0.707303
O      13.65335      1.90330      4.49128        -0.272786      0.182091     -0.176831
O      13.60186     13.56951      4.53444        -0.040219      0.723397      1.114580
O       1.78353      1.91656      8.72419         0.259055      0.013911      0.634843
O       1.81365     13.75010      8.76107         0.157993     -0.194440      0.352721
O      13.58000      1.80831      8.70585        -0.065351      0.523535      0.821807
O      13.67550     13.68428      8.75658        -0.226912      0.286592      0.113136
O       1.98514      5.80996      0.35839        -0.062257     -0.159510      0.578428
O       1.98338      5.73932     12.75969        -0.330933      0.059078      0.535171
O      13.41915      6.02591      0.32514         0.565882     -1.047243      0.923487
O      13.61984      5.85418     12.83572         0.180795      0.052511     -0.564855
O       2.00145      5.74211      4.41733        -0.533587      0.851857      1.062505
O      13.83899      5.91649      4.49895        -0.724050     -0.219127     -0.275644
O       1.83377      5.88962      8.67012         0.289684     -0.283134      1.074188
O      13.69727      5.78121      8.62565         0.017819     -0.209950     -0.936344
O       1.92263      9.75558      0.49632        -0.245678     -0.035738     -0.221058
O       1.92423      9.71674     12.86046        -0.029438      0.010386      0.329256
O      13.48429      9.77633      0.43500        -0.091076      0.131057      0.491639
O      13.72923      9.50901     12.90022        -0.079034      0.305348     -0.410993
O       1.83329      9.83566      4.49138         0.260935     -0.104596      0.159967
O      13.53054      9.62992      4.62783         0.324739      0.150258     -0.221500
O       1.89441      9.62448      8.77536         0.182515      0.516083      0.338606
O      13.64832      9.69797      8.62527        -0.008636      0.000454     -0.293197
O       5.84327      1.86528      0.47420        -0.264276     -0.007098     -1.499673
O       5.61800      2.04905     12.78891         1.033782     -0.050430      0.803647
O       5.91188     13.71290      0.44740        -0.380480     -0.016187     -0.601960
O       5.77170     13.66075     12.84793        -0.353218     -0.206186     -0.617319
O       5.66432      2.01090      4.47808         0.356199     -0.347321      1.069776
O       5.67331     13.49381      4.67091        -0.348932      0.249334     -1.180694
O       5.79399      1.98989      8.68181         0.234087     -0.255815     -0.152212
O       5.95736     13.90336      8.76495        -0.613453     -0.562367      0.566125
O       5.76934      6.07585      0.30398         0.272690     -0.657040      1.617291
O       5.86730      5.84107     12.82940         0.388161      0.062545     -0.783052
O       5.94538      6.08718      4.52006        -0.207159     -0.743734      0.303364
O       5.79642      5.94946      8.70746         0.005798     -0.183603     -0.692231
O       5.83135      9.63372      0.35987        -0.234871      0.360920      0.671568
O       5.94219      9.72849     12.90640        -0.551691      0.296293     -0.740519
O       5.72717      9.89563      4.50416        -0.071998     -0.319165      1.137839
O       5.54202      9.87284      8.77858         0.514860     -0.509974      0.059944
O       9.64803      2.03186      0.35961        -0.022178      0.112816     -0.156192
O       9.65379      1.87803     12.88674        -0.070721      0.094871     -0.644212
O       9.64569     13.69100      0.35688        -0.191787     -0.410017      0.446681
O       9.86853     13.68291     12.86811        -0.199949      0.072226     -0.104522
O       9.70411      1.74422      4.46926         0.273205      0.335010      1.237590
O       9.63204     13.80950      4.45306         0.701839     -0.184671      1.121009
O       9.81211      2.06502      8.56870         0.050278     -0.242129      0.194972
O       9.55651     13.50923      8.65023         0.250196      0.100648      0.983704
O       9.66737      5.67984      0.35064         0.280933      0.302935      0.028260
O       9.56644      5.93403     12.80255         0.309773     -0.226490     -0.233826
O       9.68303      6.06434      4.54564         0.107828     -0.626863      0.333019
O       9.76650      5.76220      8.61139         0.491251      0.272149      0.220006
O       9.69980      9.91794      0.35341         0.434300     -0.112303      0.797768
O       9.65050      9.53708     12.82108        -0.225328      0.438027     -0.117281
O       9.63887      9.74688      4.54634         0.138966     -0.444589     -0.246026
O       9.69006     10.02522      8.72742        -0.147574     -0.467386      0.705474
O       3.78387      2.06153      2.47379         0.360527     -0.105237      0.013940
O       3.89525      1.97110     14.99666        -0.336823     -0.353177     -0.008922
O       3.85125     13.65658      2.49001         0.097218     -0.065103      0.267347
O       3.75467     13.64253     15.09537         1.085474     -0.191941     -0.468218
O      15.50086      1.92820      2.37554         0.045994      0.565249      0.002780
O      15.46027      1.96461     14.97083         0.990803      0.126261     -0.252521
O      15.55677     13.77006      2.48266         0.214725     -0.434559      0.217525
O      15.53291     13.51101     14.89920         0.318108      0.618902      0.104402
O       3.85472      1.98275      6.66700         0.098260     -0.226771     -0.003038
O       3.77340     13.59951      6.74536         0.443982      0.140625     -0.002538
O      15.60720      2.10067      6.61793        -0.594585     -0.556383      0.499591
O      15.50375     13.70262      6.75427         0.906095     -0.688967     -0.144466
O       3.90815      2.04052     10.78488        -0.856833     -0.812218     -0.243595
O       3.84626     13.67763     10.79302         0.185740      0.311138     -0.039178
O      15.49216      1.91305     10.91833         0.131208      0.221101     -0.349664
O      15.55121     13.64078     10.86349         0.226353      0.381604     -0.053027
O       3.80645      5.86887      2.57611         1.751560      0.170125     -0.636606
O       3.96202      5.85305     14.83936        -1.501414     -0.323063      0.073847
O      15.55565      5.97932      2.27954        -0.678315     -0.552781      0.449863
O      15.54501      5.86032     14.86156         0.704939     -0.753412      0.313004
O       3.94972      5.88292      6.72450        -0.376968      0.188765     -0.585634
O       0.05563      5.82154      6.43440         0.007274      0.405739      0.715941
O       3.88386      5.85954     10.81045        -0.739173      0.208882     -0.256593
O      15.59807      5.69891     10.83067        -0.161917      0.284685     -0.181581
O       3.82620      9.67925      2.41874         0.215205      0.066837      0.566667
O       3.84757      9.78534     15.08550        -0.249298     -0.169631     -0.491712
O      15.45117      9.69344      2.44698         0.701770      0.272891      0.443130
O      15.57320      9.66514     15.15410         0.860183      0.121030     -0.686280
O       3.78513      9.97660      6.58819         0.593054     -0.630960      0.086465
O      15.57565      9.71013      6.49184         0.324623     -0.229310      0.728005
O       3.81239      9.80068     10.93990         0.201200     -0.226806      0.020260
O      15.46886      9.73814     10.80448         1.265799     -0.107078      0.057128
O       7.72549      2.00252      2.41044         0.592002      0.025681      0.517882
O       7.68824      1.93509     14.93486        -0.021663     -0.161010      0.094515
O       7.71717     13.66996      2.58308        -0.185754     -0.114474     -0.241246
O       7.81468     13.63040     14.88395        -0.590358     -0.079094     -0.002341
O       7.79838      1.78496      6.57672         0.025847      0.288964     -0.039486
O       7.72188     13.67604      6.46256         0.375657      0.469859      0.661507
O       7.80160      1.95542     10.74851        -0.396444      0.033916     -0.041512
O       7.73337     13.69671     11.02601        -0.285015     -0.439475     -0.742996
O       7.83257      5.84867      2.48130        -0.708222      0.395737     -0.201713
O       7.79425      5.97520     14.90972        -0.416217     -0.400888      0.259966
O       7.86490      5.89441      6.78268        -0.670261      0.166086     -0.639267
O       7.79448      5.83073     10.56746        -0.048205      0.296715      0.482686
O       7.73235      9.77599      2.53596         0.805472     -0.088126     -0.111019
O       7.71871      9.85202     15.04975         0.424378     -0.153494     -0.439640
O       7.71416      9.86985      6.59096        -0.105400     -0.215802      0.278140
O       7.72584      9.81237     10.71337        -0.165347     -0.087280      0.217754
O      11.64351      1.91372      2.41760        -0.574572     -0.043571      0.464428
O      11.59403      1.93108     14.89114         0.070292      0.144225      0.531296
O      11.61807     13.68991      2.36208         0.002804      0.119165      0.412056
O      11.67423     13.68753     15.07788        -0.189394     -0.374711      0.016058
O      11.79918      1.90688      6.59418        -1.543286      0.168138      0.018762
O      11.67674     13.63304      6.65022         0.118354      0.346365      0.041775
O      11.56916      1.93261     10.83759         0.715851      0.100203     -0.324609
O      11.64826     13.56856     10.66609        -0.567751      0.144391      0.051340
O      11.63800      5.93401      2.52211        -0.176422     -0.532721      0.097715
O      11.65055      5.99498     14.69121        -0.434729     -0.238481      0.569805
O      11.77584      5.74024      6.55281        -1.277890      0.254562      0.179239
O      11.68074      5.89897     10.69848         0.013793     -0.325001      0.087645
O      11.60268      9.84660      2.70540         0.119380      0.049836     -0.770906
O      11.69673      9.59723     14.75593        -0.770927      0.412258      0.486521
O      11.68091      9.79614      6.72544        -0.676713     -0.602511     -0.354591
O      11.72741      9.89169     10.82193        -0.474610     -0.801265     -0.173621
O       1.80105      3.88825      2.58531         0.178386      0.340494     -0.562818
O       1.93361      3.85433     14.99437        -0.472503      0.089316     -0.145283
O       1.81934      0.04111      2.56629         0.568614     -0.177585     -0.150830
O       1.89880     15.53985     15.05975        -0.307400      0.861967     -0.449849
O      13.40069      3.93259      2.34489         0.712012     -0.050601      0.118334
O      13.38956      3.93132     14.94307         0.868074     -0.113467      0.240683
O      13.64407     15.59014      2.53497        -0.549049      0.323899     -0.043472
O      13.45180      0.01124     14.87914         0.807321     -0.082306     -0.222362
O       1.99846      3.93378      6.50552        -0.147913      0.201943      0.682538
O       1.86965     15.50482      6.69852         0.009300      1.317378     -0.211224
O      13.75896      3.92186      6.46598        -0.478978     -0.815709      0.756855
O      13.79646      0.00074      6.59883        -0.887561      0.176741      0.105975
O       1.96927      3.81671     10.75140        -0.416212      0.933248      0.090587
O       1.91912      0.07797     11.02688         0.246876     -0.794255     -1.063685
O      13.55793      3.89794     10.73153        -0.094708     -0.487869     -0.069307
O      13.46690     15.53311     11.03287         0.518941      0.910230     -0.814772
O       1.80228      7.83357      2.54685         0.562496     -0.747362     -0.018146
O       1.92887      7.69942     14.92554         0.136678      0.562514     -0.141632
O      13.44203      7.84502      2.46593         0.344432     -0.087485      0.333320
O      13.63137      7.79223     15.10486         0.238395     -0.587209     -0.447921
O       2.01683      7.84075      6.61897        -0.243931     -0.091515     -0.370643
O      13.59878      7.69121      6.72320         0.135197      0.494687     -0.075015
O       1.84847      7.80841     10.85666         0.518463     -0.590989     -0.023444
O      13.60734      7.74363     10.65480         0.093785     -0.083960      0.073132
O       1.79600     11.69899      2.56086         0.177622     -0.154821     -0.052725
O       1.93011     11.64100     14.99277        -0.130929      0.116470     -0.273925
O      13.58858     11.76277      2.63052         0.100313     -0.451167     -0.629147
O      13.57152     11.59860     14.86277         0.062240      0.683649      0.421683
O       1.83327     11.71172      6.70906        -0.412337     -0.260228     -0.010948
O      13.68630     11.65498      6.71793         0.070183      0.424579     -0.181884
O       1.84837     11.72048     10.85618         0.442431      0.121611     -0.212688
O      13.65261     11.70151     10.80646         0.068468     -0.626446      0.166535
O       5.94066      3.94640      2.45117        -0.611458      0.845707     -0.191933
O       5.87998      3.93240     15.06803         0.050033     -0.682754     -0.606448
O       5.72410      0.01913      2.59617        -0.076382     -0.473022     -0.072484
O       5.73095     15.52049     14.84078         0.117210      1.052218      0.532449
O       5.83245      3.95171      6.58295         0.338207     -0.341217      0.155980
O       5.65494     15.59267      6.60687         0.291190      0.016054      0.025303
O       5.76017      3.96445     10.75091         0.340150     -0.581427      0.012649
O       5.79640      0.10090     10.86335        -0.118350     -0.757095     -0.043902
O       5.91491      7.82021      2.53657        -0.639967     -0.823894     -0.058071
O       5.78009      7.85965     14.88501         0.150315     -0.414594     -0.054690
O       5.80024      7.84764      6.64455         0.030028      0.997573      0.151422
O       5.81766      7.81870     10.70910        -0.193128      0.704582      0.626340
O       5.81429     11.61858      2.52286        -0.394518      1.297223     -0.300690
O       5.73020     11.74892     14.97051        -0.109446     -0.261019      0.107211
O       5.77471     11.71701      6.81740        -0.117960      0.108395     -0.144004
O       5.71413     11.74505     10.81984         0.221512      0.249896      0.079786
O       9.69806      3.92824      2.55354         0.155173     -0.216928      0.046051
O       9.60274      3.85238     14.69163         0.137169      1.082619      0.917286
O       9.55639      0.03209      2.38401         0.198488     -0.300705     -0.119976
O       9.70176      0.03177     14.92410        -0.177448     -0.978232      0.431167
O       9.68112      3.89782      6.46301         0.494953     -0.155659      0.094334
O       9.81990     15.56513      6.71684        -0.117637      0.196455     -0.037955
O       9.69351      3.91704     10.72621         0.219821     -0.306587      0.323760
O       9.64664     15.54706     10.71454         0.329011      0.537963     -0.138761
O       9.76913      7.83911      2.39890        -0.425068      0.062336     -0.058828
O       9.67177      7.81608     15.06182        -0.243622     -0.182622     -0.064489
O       9.67285      7.90255      6.75359         0.525133     -1.465859     -0.146810
O       9.77208      7.84674     10.59970        -0.174877     -0.139643     -0.015464
O       9.69745     11.70417      2.50218        -0.203267      0.682160     -0.122899
O       9.81319     11.64251     14.84036        -0.050988      0.612242      0.355636
O       9.74595     11.74157      6.48331        -0.163636     -0.193945      0.362949
O       9.69239     11.69809     10.96727        -0.368514      0.180434     -0.068769
