  # total energy = -7876.94878075 
CRSYTAL
PRIMVEC
    15.6080000000000005    0.0000000000000000    0.0000000000000000
     0.0000000000000000   15.6080000000000005    0.0000000000000000
     0.0000000000000000    0.0000000000000000   16.6239999999999988
PRESSURE
-0.313292 -0.634006 -0.744395 -0.350562 0.323416 -0.056261
PRIMCOORD
320 1
Pb       4.02231      3.92426      4.11172        -0.527066     -0.027993      0.626609
Pb       4.09347      4.05349      0.16242        -0.091540      0.032658     -0.506160
Pb       3.89192      0.03683      3.96881        -0.221242     -0.437220      0.752017
Pb       3.76425     15.57356     16.59369         0.473795     -0.181089      0.017631
Pb       0.09458      3.82352      4.19891        -0.579446      0.651603     -0.796949
Pb      15.52557      3.79574     16.59552        -0.382084     -0.294315     -0.009386
Pb      15.56638     15.51145      4.01432        -0.353051     -0.257634     -0.673041
Pb      15.52846     15.56915     16.56007         0.012657      0.067755      0.130012
Pb       3.63548      3.72777      8.33977         0.457131      0.352429     -0.569595
Pb       3.87485      0.06340      8.23070        -0.068961     -0.312856     -0.194919
Pb      15.49472      3.79002      8.29930         0.062171      0.044719     -0.243367
Pb       0.08496     15.57546      8.22124        -0.654223     -0.041827      0.121812
Pb       3.84794      3.91677     12.45401        -0.454896     -0.110189     -0.077430
Pb       3.83351     15.42993     12.38621        -0.049443     -0.042540      0.226703
Pb       0.02358      3.87612     12.48073         0.338236      0.151736      0.398044
Pb       0.00902      0.28537     12.68508        -0.066157     -0.220339     -0.318598
Pb       3.78980      7.89401      4.23981         0.336975     -0.355943     -0.406546
Pb       3.83174      7.74236     16.56765         0.032678      0.554465      0.429078
Pb       0.17758      7.90431      4.26271        -0.843720     -0.281137     -0.366660
Pb       0.03438      7.74439     16.60296        -0.548390      0.050569     -0.420529
Pb       3.95604      7.65787      8.22859         0.269872      0.633231     -0.531670
Pb      15.31235      7.72482      8.64138         0.242327      0.265350     -0.660902
Pb       3.92716      7.86151     12.41192         0.032994      0.266920      0.103805
Pb      15.55033      7.97712     12.61485        -0.159710     -0.719828     -0.710793
Pb       3.81442     11.68813      4.05294        -0.141439      0.161687     -0.432346
Pb       3.87799     11.67537     16.48163         0.004615     -0.273515      0.572309
Pb      15.55781     11.67473      4.03833         0.010764     -0.089588     -0.343014
Pb      15.54634     11.83952     16.56961        -0.225900     -0.591929     -0.063977
Pb       3.83589     11.68615      8.07193        -0.111039      0.397226      1.203794
Pb      15.59224     11.60862      8.28792        -0.111947      0.041254      0.115176
Pb       4.01527     11.64277     12.29047        -0.446223      0.180545      0.246767
Pb       0.21930     11.58568     12.34937        -0.338561      0.064984      0.309477
Pb       7.82281      3.66756      4.20323        -0.030973      0.685688     -0.586540
Pb       7.81592      3.99960      0.06513         0.161664      0.148341     -0.526694
Pb       7.72592     15.43575      4.02142        -0.103167      0.198953      0.439917
Pb       7.87649      0.18796      0.11082        -0.132241     -0.309917     -0.600538
Pb       7.57148      3.93864      8.37881         1.011309     -0.164461      0.400476
Pb       7.90320     15.54777      8.29354        -0.404488      0.295367      0.288715
Pb       7.68451      3.71994     12.43030         0.638040      0.137130     -0.092443
Pb       7.64174     15.54926     12.55424         0.188205     -0.042248     -0.459466
Pb       7.72621      7.84963      4.16953         0.290947     -0.249168      0.157843
Pb       7.71616      7.96469     16.57414         0.304254     -0.510078      0.342757
Pb       7.83823      7.73193      8.22875        -0.177653      0.172567     -0.280862
Pb       7.78801      7.58620     12.41122        -0.046493      0.629193      0.039060
Pb       7.98204     11.72969      4.30016        -0.469944     -0.228180     -0.003906
Pb       7.60288     11.72660     16.59205         0.588272      0.647096      0.150226
Pb       7.64961     11.75663      8.13211         0.862020     -0.394181      0.710082
Pb       7.70206     11.47893     12.39170         0.292777      1.082492      0.107147
Pb      11.86992      3.85165      4.41228        -0.602577      0.105942     -0.700233
Pb      11.81117      4.08825      0.19655        -0.209984     -0.388614     -0.422671
Pb      11.54887     15.43883      4.18371         0.400286      0.141535     -0.333382
Pb      11.57622     15.49414      0.04750        -0.502482      0.302876     -0.021519
Pb      11.74371      4.16171      8.47031         0.178629     -0.977711     -0.357358
Pb      11.63047      0.16641      8.29809         0.912880      0.003335      0.025223
Pb      11.82565      3.81565     12.65511        -0.144470      0.157824     -0.579458
Pb      11.75307     15.57222     12.44200         0.018649      0.351326     -0.605722
Pb      11.76815      7.57873      4.11884        -0.339886      0.359706     -0.022994
Pb      11.45690      7.79666      0.02719         0.426854      0.460479      0.079676
Pb      11.56686      7.91175      8.30475         0.405041     -0.059382     -0.291489
Pb      11.43574      7.98153     12.70117         0.631179     -0.094304     -0.604255
Pb      11.73582     11.27327      4.26926         0.403680      0.367056     -0.347651
Pb      11.76616     11.76883     16.51440        -0.523665     -0.710544      0.039961
Pb      11.99906     11.97553      8.51984        -0.157348      0.160950     -0.314528
Pb      11.56882     11.91473     12.38371         0.311731     -0.892227      0.502365
Ti       1.85830      1.89203      2.11292        -0.305862      0.078180     -0.352881
Ti       1.99369      1.85067     14.87527        -0.645795      1.134721     -1.490957
Ti       1.90237     13.64077      2.12957        -0.814050     -1.036422     -0.055523
Ti       1.96900     13.53481     14.75035        -0.603332      0.443445     -1.466630
Ti      13.47573      1.89622      2.07492         1.183492      0.292537      0.535334
Ti      13.41880      1.87790     14.83617         1.071994      1.335056     -0.346674
Ti      13.49767     13.53073      2.13196         0.613862      0.392140      1.067577
Ti      13.56836     13.73510     14.60727         0.870602     -1.954726      0.192730
Ti       1.87331      2.06192      6.12590         0.804426     -0.941490      1.370648
Ti       1.92698     13.74746      6.24856         0.102047     -0.548725     -0.907757
Ti      13.71189      1.85109      6.18758        -1.668055      0.191245      1.838516
Ti      13.66476     13.66749      6.21881        -0.132192     -0.304259      0.968105
Ti       1.94133      1.91019     10.53288        -0.263457     -0.086157     -0.709862
Ti       1.91119     13.60974     10.50432         0.283078     -0.182792      0.509428
Ti      13.63002      1.88628     10.47332         0.355777     -1.058197     -0.125197
Ti      13.82540     13.57965     10.67217        -0.823284      1.073977     -1.040337
Ti       2.00235      5.71866      2.18064        -0.357998      0.929425      0.579185
Ti       1.93491      5.73737     14.85655        -0.542558     -0.042595     -0.847558
Ti      13.76516      5.86699      2.17365        -0.650346     -0.728839      0.444421
Ti      13.61551      5.89130     14.60322         0.101580     -0.171307      0.156847
Ti       1.94804      5.93068      6.27706         0.047395     -0.497659      0.263403
Ti      13.72008      5.75651      6.34107         0.420203      0.667367     -0.078875
Ti       2.19369      5.84596     10.31216        -2.358350     -0.137097      1.544195
Ti      13.77917      5.71710     10.58474        -0.104877      1.232551      1.250399
Ti       1.85851      9.61382      2.04618         0.319496      1.105810      0.573020
Ti       1.88120      9.68941     14.62497         1.435699     -0.023093      0.111827
Ti      13.65401      9.62885      2.05043        -0.730752      0.691745      0.167436
Ti      13.57890      9.77973     14.52191         0.052374      0.536346      0.776530
Ti       1.90703      9.82237      6.35537        -1.027912     -0.731332      0.495347
Ti      13.62338      9.68404      6.43966         0.422113     -0.313741      0.007543
Ti       2.00116      9.60278     10.46141        -0.340019      0.636886      0.300960
Ti      13.51549      9.70835     10.55463         1.225579     -0.439494      0.047537
Ti       5.79738      1.87679      2.14758         0.182141      1.139804     -0.696724
Ti       5.84170      2.03676     14.68357         0.245815     -0.479457     -0.015859
Ti       5.76744     13.72020      2.08713         0.108202     -1.545461     -0.647789
Ti       5.85078     13.75257     14.69852         0.442603     -0.500132     -0.270852
Ti       5.84772      2.00754      6.41902        -0.581415     -1.570082     -0.531506
Ti       5.84178     13.76019      6.37518        -0.839738      0.346748     -0.912229
Ti       5.79300      1.83755     10.46566         0.676825     -0.009849      0.616704
Ti       5.87784     13.64669     10.38533         0.146082     -0.234515     -0.467700
Ti       5.92072      5.87223      2.40334        -0.052392      0.333739     -0.516845
Ti       5.82708      5.98548     14.56728         1.171997     -1.419350     -0.755793
Ti       5.88368      5.82280      6.36448        -0.505938      0.233580     -0.065100
Ti       5.93276      5.79707     10.45756        -0.400168      0.207631     -0.131562
Ti       5.73720      9.80997      2.13564        -0.024709     -0.467192     -0.220168
Ti       5.77146      9.76625     14.68673        -0.342313      0.259483     -0.123840
Ti       5.78576      9.88933      6.30825         0.462718     -1.919982      0.719100
Ti       5.89347      9.70607     10.42443        -0.634709     -0.040165     -1.193670
Ti       9.70298      1.87471      2.27477         0.780122      1.429951     -1.558951
Ti       9.65175      1.98824     14.54988         0.617788      0.317339      1.060811
Ti       9.63850     13.57824      2.20323         1.113211     -0.985819     -1.662493
Ti       9.68643     13.71016     14.57470        -0.505618     -0.359158      0.704904
Ti       9.68476      1.86605      6.30988         1.945897      0.419163      1.606806
Ti       9.76171     13.62210      6.41168         0.725447     -0.756199      0.673784
Ti       9.75577      1.96454     10.45423        -0.209838     -0.021117     -0.077516
Ti       9.75127     13.67147     10.42918        -0.298329     -0.897514      0.465311
Ti       9.75334      5.81984      2.26846        -0.073479     -0.444876      1.014717
Ti       9.74051      5.87061     14.46639        -0.093938     -0.586799      0.180650
Ti       9.79404      5.65011      6.36212        -0.223314      1.368869     -1.208793
Ti       9.81493      5.87247     10.37833         0.712794     -0.289424      1.625320
Ti       9.63274      9.71768      2.32531         1.465333     -0.347585     -1.558713
Ti       9.63468      9.81591     14.63550         1.019114     -0.658932     -0.253220
Ti       9.69053      9.67730      6.40983         0.466743      0.170034      0.719298
Ti       9.72466      9.77503     10.37648        -0.009746      0.248803      1.117332
O       1.95693      1.69445      0.27728        -0.075809      0.413392      0.951797
O       1.83280      2.12919     13.00294         0.335026     -0.557268      0.103903
O       1.77329     13.64669      0.31930         0.225954     -0.030742     -0.359699
O       2.00568     13.67398     12.95542         0.380280     -0.324259      0.098257
O      13.39354      1.88624      0.26634         0.266306     -0.396683      0.812122
O      13.65022      1.75664     13.03603        -0.160222      0.263925     -0.938024
O      13.78183     13.40874      0.37895        -0.698792      0.734073     -0.787744
O      13.53073     13.70847     12.83579        -0.005377      0.084763     -0.203866
O       1.85769      1.88780      4.33638         0.235678      0.299012      0.631494
O       2.03200     13.55358      4.40605        -0.065231      0.290766      1.242905
O      13.66149      2.07034      4.43895         0.404023     -0.277179     -0.791601
O      13.52466     13.66746      4.46802         0.005700     -0.133804     -0.304614
O       1.87659      1.91443      8.71272         0.232000      0.151635      0.442083
O       1.72992     13.51283      8.77264         0.200168      0.641746     -0.951880
O      13.71750      1.91449      8.66786         0.160331      0.246946      0.811520
O      13.84724     13.60742      8.85099        -0.138825     -0.362872     -0.742737
O       2.14166      5.87975      0.39693        -0.108757     -0.197221     -0.117624
O       1.74142      5.53094     13.11320         0.908845      0.557165     -0.299840
O      13.40869      5.95232      0.43956         0.441719      0.250254     -0.775473
O      13.77777      5.78378     12.79494        -0.278054     -0.364260      0.605789
O       1.93306      5.68024      4.48981        -0.405939      0.489633      0.028948
O      13.83996      5.58793      4.54549        -0.528487      0.501670     -0.227315
O       2.17815      6.04191      8.57934        -0.133244     -0.517101     -0.759270
O      13.71385      5.63309      8.77919        -0.279079      0.168703     -0.461732
O       1.95042      9.60806      0.28416         0.080654     -0.033361      0.483582
O       2.14639      9.73071     12.82806        -0.353736     -0.312509     -0.027335
O      13.75021      9.73066      0.28384        -0.181096     -0.265893     -0.098385
O      13.64315      9.69699     12.72124         0.225834      0.007097      0.282987
O       1.89259      9.73958      4.54525        -0.182896      0.287818     -0.194113
O      13.73668      9.69413      4.66233        -0.011451      0.102864     -1.024634
O       1.85294      9.64140      8.69493         0.595401     -0.042402     -0.358436
O      13.56486      9.48821      8.67982         0.076871      0.654821      0.790413
O       5.98747      1.95816      0.30575        -0.645150      0.242510      0.995951
O       6.03347      1.95506     12.84862        -0.620233      0.030527      0.201834
O       5.89838     13.67899      0.30914        -0.012567      0.174897      0.638455
O       5.87260     13.64018     12.90100        -0.357217      0.228176     -0.157770
O       5.79568      1.88762      4.61983         0.356832     -0.021273      0.182826
O       5.76200     13.71295      4.53635         0.041072     -0.011843      0.093967
O       5.80051      1.79861      8.69547         0.014546      0.417004      0.132044
O       5.81678     13.81317      8.52374         0.381317     -0.888534      1.527109
O       5.92425      5.76409      0.61279        -0.313033     -0.353778     -1.171276
O       5.92169      5.79605     12.76832        -0.171966      0.225723      0.038720
O       6.05746      5.62731      4.60526        -0.590324      0.035965     -0.906258
O       5.76552      5.77095      8.63840         0.258830      0.277358      0.519478
O       5.63321      9.60781      0.29486         1.176295      0.330200      1.248434
O       5.84796      9.74459     12.90359         0.136676      0.246510     -0.801580
O       5.84157      9.84400      4.56010        -0.003871     -0.071859     -1.150167
O       5.74561      9.70444      8.61712         0.327811      0.105586      0.858713
O       9.73060      1.95561      0.39423        -0.369177     -0.215942      1.414834
O       9.62238      1.75437     12.80798         0.305254      0.117902     -0.713099
O       9.74491     13.45115      0.40224        -0.468023      0.067833      0.189124
O       9.85534     13.67349     12.79307        -0.189224      0.189164      0.239642
O       9.78828      1.81824      4.56061        -0.495915     -0.809094     -1.472027
O       9.75209     13.81004      4.63386        -0.030439     -0.196146     -0.868884
O       9.93366      1.96597      8.62419        -0.246352     -0.022023      0.973370
O       9.76492     13.45565      8.65482        -0.091620      0.292388     -0.592867
O       9.69494      5.82915      0.47859         0.165365      0.018697     -0.433515
O       9.86076      6.19354     12.66478        -0.608073     -0.912217      0.598786
O       9.91052      6.04290      4.58386        -0.886531     -0.945092      0.430937
O       9.82592      5.73406      8.58210         0.141737     -0.218454     -0.220517
O       9.70417      9.70291      0.49544        -0.144024     -0.101957      0.037303
O       9.54976      9.47343     12.81955         0.591067      0.555339      0.563504
O       9.61209      9.75047      4.64020         0.078319     -0.446191     -1.226403
O       9.73281      9.77652      8.62090         0.086401      0.181482     -0.650465
O       3.87129      1.76748      2.36696         0.513952      0.239159     -0.128059
O       3.87541      1.68136     14.92390         0.981175      1.026260     -0.046794
O       3.80054     13.77173      2.24792         1.387579     -0.301470      0.453068
O       3.94870     13.58681     15.06971        -1.087870      0.389963     -0.213139
O       0.01115      1.96321      2.27647        -0.069115     -0.113730      0.238294
O      15.47766      1.88389     15.04538         0.897062     -0.226963      0.264309
O      15.56628     13.49281      2.46858         0.067284      0.290830      0.395916
O      15.53486     13.49099     14.84150         0.287657      0.866153      0.290642
O       3.86514      2.04033      6.68799        -0.246411     -0.015828     -0.407375
O       3.85436     13.63084      6.69238        -0.284553     -0.172447     -0.323395
O       0.00654      1.86222      6.53465         0.807771      0.109275     -0.181403
O      15.60192     13.82337      6.34228         0.583096     -0.496031      0.450457
O       3.87454      2.00404     10.84991         1.377782     -0.680788      0.000655
O       3.94484     13.66741     10.77846        -0.137568     -0.151261     -0.074025
O       0.09846      2.04242     10.88129        -0.595230     -0.484316     -0.104847
O       0.03468     13.60705     10.95957         1.237833     -0.248615      0.318767
O       3.93573      5.77896      2.67061         0.118151      0.056078     -0.262398
O       3.99995      5.97011     14.96829        -0.889053     -0.309546     -0.088368
O       0.02807      5.76878      2.37906         0.500491     -0.213458     -0.095701
O      15.48564      5.67530     15.20903         0.752022      0.626911     -0.395308
O       3.88721      5.61432      6.56343         0.089990      0.413566     -0.112351
O       0.03217      5.82259      6.67369         0.059962      0.293460      0.046964
O       4.00562      5.85978     10.91793         0.596699     -0.156076     -0.353875
O       0.14951      5.83595     10.60962        -0.501973     -0.757427      0.149846
O       3.90336      9.56479      2.59009        -0.246980      0.784688     -0.453773
O       3.92269      9.56146     14.93224         0.055855      0.382973     -0.052097
O      15.57941      9.78440      2.28740         0.879933     -0.218819      0.829037
O       0.09449      9.68260     14.66874        -1.827476      0.280546      0.317087
O       3.85770      9.85727      6.56765        -0.416888     -0.087328     -0.041158
O      15.53571      9.69067      6.75249         1.613065     -0.211287     -0.340521
O       3.94022      9.74639     10.75347         0.757338     -0.326387      0.189900
O       0.10769      9.61000     10.85335        -0.083158      0.100208     -0.088094
O       7.80206      1.79038      2.44519        -0.485148      0.519125      0.485952
O       7.76527      2.08615     14.93077        -0.482849     -0.241959      0.251087
O       7.74905     13.54997      2.38872        -0.569648      0.180287      0.714935
O       7.79447     13.55326     14.89361         0.679459     -0.581882      0.119396
O       7.89750      1.83661      6.79316        -1.375147      0.028515     -0.475257
O       7.78804     13.61161      6.58061        -0.497507      0.911628      0.166819
O       7.86781      1.73614     10.71543        -0.441736      0.253161     -0.195037
O       7.75567     13.53074     10.75243         0.933512      0.552759     -0.241417
O       7.78312      5.59743      2.52489         0.577189      0.403250      0.480407
O       7.84364      5.85467     14.69404         0.114838      0.055855      0.771138
O       7.81882      5.85333      6.70159         0.193152     -0.490593      0.226326
O       7.86566      5.92567     10.60434        -0.386247     -0.111072      0.219378
O       7.81809      9.75414      2.54152        -1.685342      0.110780     -0.170869
O       7.81032      9.83536     15.06955        -0.232725     -0.303611     -0.139582
O       7.65051      9.63424      6.74263         0.782520      0.094767     -0.383409
O       7.83449      9.79979     10.83563        -0.128984     -0.429607     -0.951110
O      11.70199      1.88590      2.46805        -0.964998     -0.518082      0.282602
O      11.58131      1.99160     14.91060        -0.855195     -0.879165     -0.290538
O      11.63506     13.72896      2.24509         0.273369      0.084527      0.597453
O      11.62970     13.61564     15.04226        -0.058010      0.696679     -0.255499
O      11.77175      1.82169      6.51406         0.067868      0.055040     -0.146671
O      11.74391     13.59853      6.66465        -0.149615     -0.265663      0.000789
O      11.77220      1.76373     10.83164        -0.566895      0.784184     -0.045090
O      11.81600     13.46484     10.72444        -0.728678      0.484310     -0.145919
O      11.69237      5.80863      2.54480         0.250149      0.292585      0.099747
O      11.66745      5.72563     14.80942         0.357010      0.764974      0.028951
O      11.70650      5.63857      6.48832         1.040814      0.379751      0.740247
O      11.67299      5.58158     10.72473         0.452020      0.162177     -0.376036
O      11.72363      9.55993      2.33936        -0.158316      0.350188      1.115523
O      11.75895      9.65509     14.88671        -0.439836     -0.184516     -0.076939
O      11.67384      9.73539      6.50871        -0.722965      0.131265      0.462354
O      11.73893      9.74257     10.79154        -1.058601      0.098466     -0.134579
O       2.05937      3.85841      2.31250        -0.092464     -1.099434      0.141188
O       2.00201      3.86354     15.17995         0.388393     -0.410316      0.437778
O       1.86747     15.50615      2.43833        -0.302926      0.971143      0.079835
O       1.91753     15.53310     14.95811        -0.317041     -0.278060      0.008792
O      13.63180      3.89086      2.14846        -0.131575     -0.517197      0.613587
O      13.47367      3.84818     15.06436         0.610978      0.536920     -0.245791
O      13.72999     15.56226      2.39146        -0.171914      0.171435     -0.056609
O      13.48411     15.55661     15.01926         0.289417     -0.490638      0.347546
O       1.78767      3.90746      6.57264         0.348801     -1.023239      0.047984
O       2.05665      0.03058      6.62549        -0.398072     -0.140527     -0.468409
O      13.73892      3.83761      6.63674         0.069838     -0.269744      0.043459
O      13.71478     15.58052      6.62165        -0.179558     -0.312557     -0.419062
O       2.22174      3.92624     10.60509        -0.575576      0.103479      0.380433
O       2.00782     15.55864     10.78322        -0.127837      0.646034      0.195873
O      13.65186      3.72993     10.96808         0.142807      1.033829     -0.449810
O      13.76456     15.54052     10.75735         0.049638      0.842287      0.625782
O       1.93037      7.67905      2.46685        -0.101944      1.158915      0.406459
O       1.91287      7.77118     15.04865        -0.129009     -0.953055     -0.390158
O      13.81065      7.80175      2.53836        -0.169723     -0.630979      0.024331
O      13.79491      7.81058     14.78023        -0.231449     -0.722742      0.167819
O       2.07362      7.85327      6.39091         0.040689     -0.766283      0.199638
O      13.62943      7.70858      6.68397        -0.163692     -0.855821     -0.097750
O       2.15945      7.69588     10.85635        -0.233252      0.406048     -0.194628
O      13.76626      7.68568     10.83933        -0.207456     -0.243425     -0.563185
O       1.96292     11.60486      2.36334         0.469662     -0.097577      0.285460
O       1.94923     11.60491     15.01008         0.400363      0.583922     -0.153633
O      13.50991     11.65885      2.47423         0.220043     -0.593596      0.404266
O      13.54492     11.73478     14.85110         0.213330     -0.816503      0.108516
O       1.83472     11.75728      6.70663         0.191316     -0.324927     -0.536230
O      13.76182     11.63217      6.66145        -0.315020      1.351875      0.159430
O       2.04839     11.63928     10.81215        -0.323453      0.248828      0.018586
O      13.77708     11.60131     10.70321         0.084822     -0.373912      0.190906
O       5.79159      3.72437      2.68117         0.360595     -0.005164     -1.038379
O       5.77193      3.98976     14.95785        -0.072382     -0.925416      0.093609
O       5.88548     15.59261      2.46260        -0.155705     -0.244464      0.055908
O       5.95760     15.58406     14.93232        -0.018593      0.940031     -0.112663
O       6.01498      3.80496      6.73996        -0.444126      0.474730     -0.298377
O       5.70909      0.02569      6.67606         0.596644     -0.186647     -0.337919
O       6.02707      3.85322     10.65373        -0.281972     -0.152378      0.094835
O       5.96132     15.52697     10.78104        -0.834608      0.727395      0.201921
O       5.86841      7.78450      2.43744         0.574776     -0.144304      0.769934
O       6.06123      7.82424     14.83034        -0.300462     -0.241382      0.392206
O       5.76124      7.68458      6.42113        -0.271704      0.436507      0.600166
O       5.98652      7.82429     10.70252        -0.643996     -0.521264      0.091269
O       5.71120     11.71821      2.21980        -0.186437     -0.545464      0.521186
O       5.81227     11.68122     15.03809        -0.063741     -0.434552     -0.124004
O       5.82642     11.71504      6.60393        -0.022922      0.800879      0.059087
O       5.91681     11.71727     10.79002        -0.496916     -0.638647     -0.283055
O       9.76586      3.81990      2.62800        -0.233166     -0.422661     -0.133236
O       9.72821      3.88799     14.64875        -0.202299      0.751397      0.015248
O       9.61605     15.46888      2.36915         0.433151      1.092942      0.557858
O       9.49130     15.59607     15.01954         1.099360     -0.408732     -0.368660
O       9.84986      3.79176      6.33074        -0.706394      0.105691      0.480505
O       9.85305     15.52907      6.80155        -0.708198      0.062026     -0.449381
O       9.60196      3.82307     10.83006         0.606870     -0.056329     -0.317565
O       9.94006     15.46554     10.64759        -0.454662      0.869597     -0.109737
O       9.67535      7.74365      2.60701        -0.166719      0.324852     -0.262310
O       9.91862      7.79356     14.91726        -0.948356     -0.296115      0.204879
O       9.76237      7.75879      6.66713        -0.190744      0.403313      0.531093
O       9.95013      7.84587     10.47610        -0.504342     -0.805676      0.245330
O       9.77169     11.67722      2.79468         0.148380     -0.154462     -0.549662
O       9.93107     11.58947     14.73428        -0.564951      1.127375      0.229477
O       9.45144     11.65764      6.47118         0.597888      0.318469      0.153023
O       9.85463     11.68443     10.81052        -0.481895     -0.667056      0.043655
