  # total energy = -7882.98309598 
CRSYTAL
PRIMVEC
    15.6080000000000005    0.0000000000000000    0.0000000000000000
     0.0000000000000000   15.6080000000000005    0.0000000000000000
     0.0000000000000000    0.0000000000000000   16.6239999999999988
PRESSURE
-1.29797 -1.18442 -1.2287 -0.23406 0.269034 -0.115094
PRIMCOORD
320 1
Pb       3.98290      3.83517      4.11268        -0.426967      0.072721     -0.332882
Pb       4.06636      4.00500      0.10774        -0.780412     -0.370516     -0.257456
Pb       3.91275      0.00675      3.97863        -0.216993     -0.038978      0.182236
Pb       3.81873     15.56994     16.57549         0.237691      0.201380     -0.228139
Pb       0.05327      3.84652      4.13614         0.152478      0.068043     -0.168406
Pb      15.56545      3.78133     16.60452         0.108362      0.454770     -0.151968
Pb      15.55824     15.48968      3.99567         0.472746      0.088858      0.593981
Pb      15.57133     15.57987     16.57851        -0.098700     -0.033099     -0.657086
Pb       3.71386      3.74826      8.27890         0.183328      0.186418     -0.044793
Pb       3.84409      0.01458      8.16802         0.274309     -0.590602      0.317714
Pb      15.46626      3.81479      8.28186         0.284846      0.133611      0.046189
Pb      15.59435     15.56033      8.21189        -0.114523     -0.152465      0.357420
Pb       3.77389      3.88314     12.49310         0.630407     -0.339656     -0.603292
Pb       3.84487     15.49124     12.49589         0.221010      0.431869     -0.443504
Pb       0.07856      3.98253     12.52930        -0.892997     -0.222863     -0.117022
Pb       0.05320      0.20682     12.68985        -0.178351     -0.669393     -0.918191
Pb       3.81578      7.89332      4.11130         0.696983     -0.223444      0.061814
Pb       3.86811      7.75749     16.53479         0.240966      0.178056      0.045447
Pb       0.03400      7.87157      4.20061        -0.398040      0.241184     -0.173247
Pb      15.58888      7.75767     16.54250         0.325928     -0.196737      0.280042
Pb       3.85441      7.70286      8.29425        -0.136092      0.140271     -0.715063
Pb      15.29907      7.71043      8.59670         0.706359      0.220911     -0.158529
Pb       3.94194      7.80675     12.39300        -0.246428     -0.064835      0.060071
Pb      15.51434      7.88979     12.56067         0.153139     -0.161184     -0.870059
Pb       3.82114     11.71444      4.01449         0.085971     -0.160423      0.346327
Pb       3.83352     11.72367     16.56256        -0.031036     -0.148582     -0.247379
Pb      15.53114     11.65556      4.02087         0.068653     -0.263889      0.058528
Pb      15.54818     11.76885     16.56114         0.289761     -0.042182     -0.181016
Pb       3.82900     11.76416      8.20584         0.116612     -0.262749     -0.107736
Pb       0.00173     11.64877      8.24668         0.347783     -0.000181      0.347436
Pb       3.93641     11.62890     12.33411         0.020330      0.133835      0.055089
Pb       0.14811     11.66384     12.43009        -0.283947      0.087817     -0.424107
Pb       7.77789      3.68349      4.17295         0.445710      0.475010     -0.040463
Pb       7.79021      4.01394     16.58945         0.665292     -1.106187      0.488032
Pb       7.70694     15.50348      4.10060         0.529605      0.133288     -0.245494
Pb       7.82502      0.15909      0.03935        -0.182282      0.012067     -0.024362
Pb       7.66967      3.86848      8.39382         0.539943      0.144039     -0.502592
Pb       7.87505      0.01230      8.24482        -0.238075     -0.603621     -0.334993
Pb       7.77707      3.70611     12.41355         0.148595      0.579694      0.101568
Pb       7.67797     15.54419     12.47335        -0.109523      0.146653     -0.213569
Pb       7.79754      7.84050      4.18483        -0.167423     -0.057230     -0.368392
Pb       7.64440      7.82518     16.58785         0.059087      0.070135      0.035391
Pb       7.83098      7.71827      8.20116        -0.260603      0.199636     -0.054395
Pb       7.73631      7.69370     12.43892         0.024671      0.258240     -0.602757
Pb       7.89397     11.74361      4.22594         0.216685     -0.307769     -0.236000
Pb       7.64841     11.78853     16.56731         0.366610     -0.309387     -0.106867
Pb       7.76770     11.75223      8.23568        -0.065345      0.092827     -0.075115
Pb       7.75317     11.59557     12.39163        -0.263658     -0.073224      0.043132
Pb      11.87425      3.79568      4.32746        -0.603692      0.233228     -0.400530
Pb      11.75363      4.05697      0.19713        -0.190843     -0.310379     -0.170167
Pb      11.59236     15.43881      4.13448        -0.195517      0.184408     -0.125267
Pb      11.58888     15.52425     16.59472         0.477672      0.073102      0.226124
Pb      11.73820      4.10781      8.47707        -0.310866     -0.337073     -0.702323
Pb      11.68731      0.16993      8.34117         0.170021     -0.261261     -0.266776
Pb      11.78821      3.83102     12.55371        -0.061751      0.209579     -0.557292
Pb      11.60401      0.04125     12.42395         0.362878     -0.019750     -0.603683
Pb      11.77713      7.76441      4.20798        -0.096612     -0.152117     -0.333246
Pb      11.56796      7.81936      0.00745        -0.016579     -0.224879     -0.109938
Pb      11.64880      7.82559      8.35072        -0.008708     -0.327362     -0.313327
Pb      11.47210      8.01170     12.62351         0.684073     -0.151077     -0.390249
Pb      11.84561     11.36462      4.21139        -0.424651      0.669851     -0.423141
Pb      11.64763     11.69803     16.52044         0.050914     -0.243007      0.306562
Pb      11.88547     11.93247      8.53557        -0.338146     -0.321678     -0.409397
Pb      11.57000     11.83387     12.40887         0.186297     -0.376933     -0.161855
Ti       1.94042      1.99061      2.12673         0.349632      0.342454      0.250989
Ti       1.98195      2.01920     14.66131        -0.215942     -0.244614      1.421001
Ti       1.94246     13.65335      2.10413        -0.631307     -0.146937     -0.082546
Ti       1.93081     13.66646     14.59496        -0.229956     -1.078035      1.334552
Ti      13.69858      1.85828      2.23642        -1.016218      0.932271      0.520283
Ti      13.55584      1.90205     14.63539         1.464234      0.726795     -0.112790
Ti      13.61853     13.66699      2.17442        -0.538772     -1.632550      0.198147
Ti      13.60430     13.60196     14.58134         0.862236      0.066721      0.868658
Ti       1.96213      1.78894      6.24999        -0.151940      1.175976     -0.741837
Ti       1.90074     13.57615      6.33325         0.067195     -0.374143      0.117484
Ti      13.64947      1.90085      6.36256        -0.104830     -0.164149     -0.443360
Ti      13.64781     13.58443      6.35309         0.010199      0.448823      0.453553
Ti       1.99644      1.90933     10.53485        -0.404244     -0.579851      0.344108
Ti       1.98082     13.69960     10.55505        -1.139313     -0.067420     -0.720153
Ti      13.72983      1.91716     10.62187        -0.242650      0.033375     -0.847751
Ti      13.75407     13.69473     10.56803         0.226641      0.129098      0.520194
Ti       1.89232      5.91258      2.26657         0.261791     -0.920435     -1.049989
Ti       2.04526      5.76968     14.59802        -0.624208      0.472345      0.988421
Ti      13.58708      5.78622      2.24023         0.186397      0.160784     -0.107733
Ti      13.72199      5.83339     14.72444        -0.371776     -0.812532     -1.540404
Ti       2.03297      5.74589      6.34668        -0.766616      0.356752      0.272942
Ti      13.81443      5.82667      6.36901        -1.363614      0.158641     -0.050395
Ti       1.84257      5.80407     10.52902        -0.115301      0.342977     -0.821428
Ti      13.55688      5.81865     10.62368         1.102549      0.277058      0.866328
Ti       1.97385      9.78082      2.14909        -0.364547     -0.402340      0.654380
Ti       1.93979      9.70356     14.71378         0.191032      0.901301     -0.409431
Ti      13.61156      9.66866      2.06859         0.293532      0.293772      0.182008
Ti      13.70202      9.69726     14.67276        -0.867354      0.357798     -0.415091
Ti       1.97621      9.61905      6.30513        -0.559817      1.042354      0.862085
Ti      13.67440      9.72221      6.49720         0.411464     -0.298668     -0.205526
Ti       1.97654      9.69764     10.45954        -1.067210     -0.030471      0.285372
Ti      13.68314      9.79900     10.54581         0.183106     -0.344771      0.692282
Ti       5.88329      1.94584      2.17435        -0.267554     -0.168429     -0.436769
Ti       5.79316      1.89292     14.72685         0.240772      0.002533      0.584284
Ti       5.84497     13.56012      2.13715         0.059110      0.416084      0.814529
Ti       5.80751     13.64644     14.56513         0.018841     -0.047652      0.053790
Ti       5.87213      1.88216      6.30527        -0.440913     -0.187643     -0.778007
Ti       5.83754     13.60316      6.22278         0.085910      0.042799      0.341886
Ti       5.85621      1.95411     10.48410        -0.650209     -0.772900      0.206212
Ti       5.85091     13.64484     10.49165        -0.204233     -0.174198     -1.116548
Ti       5.81348      5.86204      2.15383         0.381506      0.537017      2.074412
Ti       5.91176      5.74678     14.59972        -0.596449      0.813228     -0.493276
Ti       5.85605      5.69932      6.33140         0.188176      1.110944     -0.191449
Ti       5.76089      5.81587     10.42464         0.573260     -0.307932      0.713894
Ti       5.91064      9.75286      2.21117        -0.110215     -0.288644      0.127170
Ti       5.84976      9.78256     14.59869        -0.201482     -0.307385     -0.125770
Ti       5.85530      9.68113      6.32668        -0.297515      0.011574     -0.595056
Ti       5.79780      9.69568     10.33205         0.946356      0.815454      0.740051
Ti       9.81552      1.90316      2.27110        -0.048746      0.074193      0.067566
Ti       9.78321      1.86280     14.63185        -1.123092      1.494086     -0.558575
Ti       9.74629     13.54267      2.11269        -0.010031     -0.578803      0.102672
Ti       9.71975     13.60770     14.65981        -0.535163     -0.674109     -0.068692
Ti       9.73835      1.94236      6.42212         0.229195      0.184403     -0.447606
Ti       9.83474     13.56752      6.32693        -0.472163      0.218589      0.175378
Ti       9.79028      1.96732     10.47157         0.427064      0.424197      0.408868
Ti       9.69998     13.69196     10.49977         0.140040     -0.165890     -0.293392
Ti       9.67726      5.77993      2.32144         0.659840      0.091853     -0.461816
Ti       9.76647      5.77261     14.67654         0.348924     -0.059575      0.312846
Ti       9.77888      5.81308      6.34137         0.198099     -1.082426     -0.331621
Ti       9.76784      5.84328     10.59746        -0.255751     -0.446721     -0.151728
Ti       9.75377      9.71201      2.12999         0.150697      0.247732      0.089690
Ti       9.70834      9.68984     14.72220        -0.097970      0.543041     -0.502414
Ti       9.79361      9.73811      6.39713         0.102629      0.139247      0.493839
Ti       9.69996      9.75054     10.48276        -0.086458      0.230673      0.188450
O       1.93610      2.03573      0.34363        -0.000710     -0.397786      0.161619
O       2.04501      1.88011     12.91656        -0.055062      0.352134     -0.668857
O       1.94877     13.53509      0.32182        -0.067353      0.810114      0.595255
O       2.07003     13.49123     12.84817        -0.190611      0.187171     -0.394580
O      13.65403      1.82981      0.47760         0.002847      0.042891     -0.933169
O      13.64168      2.06145     12.82354        -0.106921     -0.531039      0.985960
O      13.66176     13.66285      0.43443         0.073687      0.202116     -0.830366
O      13.52857     13.55361     12.85650        -0.259595     -0.001684     -0.709138
O       2.00922      2.01864      4.45894        -0.402961     -0.578450      0.701648
O       1.91919     13.61890      4.57835        -0.191329     -0.136207     -0.788026
O      13.69695      1.95132      4.57525        -0.180477     -0.184407      0.047302
O      13.69071     13.50143      4.58856        -0.119843      0.220123     -0.602285
O       2.10862      1.74838      8.72611        -0.329258      0.472560      0.152885
O       1.89153     13.84788      8.74382         0.119425     -0.364174      0.451780
O      13.74982      1.84614      8.78661        -0.003886      0.143182     -0.273643
O      13.77747     13.65027      8.74168        -0.242588      0.012342      0.483809
O       2.03219      5.88082      0.45013        -0.118861      0.272589      0.684903
O       2.14273      5.68851     12.81941        -0.482139      0.278922     -0.064847
O      13.67535      5.64132      0.41014        -0.570554      0.508843      0.006913
O      13.78320      5.73182     12.86262        -0.374860      0.284171      0.984714
O       1.88055      5.81048      4.58261         0.140743     -0.151148     -0.571318
O      13.64753      5.83241      4.59939         0.253342     -0.071276     -0.473416
O       1.86356      5.75951      8.70532         0.426732      0.095803      0.278534
O      13.74960      5.74111      8.81744        -0.191091     -0.024188     -1.033630
O       1.94423      9.64924      0.40848        -0.065979     -0.079413     -0.735007
O       1.79561      9.69468     12.91216         0.550248      0.435388      0.333095
O      13.47054      9.64670      0.28205         0.370149     -0.057726      0.471138
O      13.66918      9.54165     12.83209         0.287829      0.493912      0.775573
O       1.88659      9.77969      4.52382         0.244458     -0.166677     -0.542651
O      13.60288      9.63530      4.67158        -0.138701      0.393502      0.038751
O       2.13425      9.60428      8.70696        -0.279285      0.108997     -0.069345
O      13.87430      9.85032      8.76906        -0.601227     -0.692932     -0.868966
O       5.86227      1.87043      0.35607         0.068085     -0.036784      0.312577
O       5.92683      1.94604     12.98234         0.138289     -0.069370     -1.283514
O       5.81897     13.58396      0.36440         0.225823      0.244200     -0.363812
O       5.73893     13.67263     12.75581         0.097101     -0.167210      0.541054
O       5.86462      1.99648      4.42223         0.033280     -0.269323      1.129835
O       5.77270     13.59342      4.37963         0.200390      0.121576      1.548639
O       5.77881      1.99443      8.69621         0.086883     -0.107314      0.184156
O       5.96411     13.52711      8.67073        -0.192486      0.502293      0.406348
O       5.80144      5.88353      0.41553        -0.097645     -0.053529     -1.566339
O       5.93007      5.87798     12.79067        -0.151798     -0.179274      0.806364
O       5.80906      5.83658      4.55871         0.414642     -0.200277     -0.016160
O       5.95148      5.76711      8.66029        -0.510644     -0.050212      0.161806
O       6.00390      9.74616      0.44014        -0.210969      0.037699     -0.863740
O       5.85514      9.81651     12.80414        -0.224511     -0.366593      0.543620
O       5.85438      9.62431      4.46988         0.154723      0.530446      0.779511
O       5.85521      9.82816      8.57746        -0.316992     -0.178518     -0.263756
O       9.72742      1.89563      0.48111         0.334595     -0.510839     -0.583713
O       9.70886      1.90629     12.76302         0.257381     -0.376751      1.475401
O       9.62396     13.48319      0.28408         0.396173      0.658990      0.290534
O       9.86911     13.70807     12.86059        -0.067622      0.048359     -0.045376
O       9.58818      1.78327      4.61419         0.158225      0.261797     -0.047338
O       9.81755     13.50364      4.54673        -0.010418      0.494159     -0.251254
O       9.71976      1.94295      8.68580         0.061856      0.129935     -0.185820
O       9.70713     13.49715      8.73905        -0.222746      0.163236     -0.257031
O      10.00824      5.60379      0.48861        -0.909334      0.459603      0.238669
O       9.70026      5.84701     12.92100        -0.012742      0.321719     -0.680285
O       9.61318      5.73096      4.54209         0.338528      0.597751     -0.157053
O       9.96232      5.74244      8.82712        -0.629997      0.344376     -0.287714
O       9.82797      9.79283      0.33262         0.007277     -0.420721     -0.488541
O       9.73069      9.77029     12.87250         0.052996     -0.572852      0.148150
O       9.91345      9.55529      4.62961        -0.049433      0.224100     -0.327223
O       9.72109      9.86132      8.73431         0.025865     -0.412835     -0.068786
O       3.89179      1.92096      2.43992        -0.070934     -0.178859     -0.039940
O       3.86551      1.93282     15.04855         0.869666     -0.245998     -0.091981
O       3.76763     13.66739      2.49743         0.942595      0.368638     -0.279975
O       3.90316     13.63533     14.95224        -0.117378      0.144247      0.037801
O      15.58364      2.04000      2.47126         0.024046     -0.156327      0.135475
O       0.07133      1.97632     14.90709        -0.445789     -0.358078      0.256909
O      15.58202     13.51496      2.50679         0.273146      0.465654     -0.119300
O      15.57455     13.63373     14.95897         0.075076     -0.124859     -0.132139
O       3.91655      1.76071      6.49575        -0.097487      0.667481      0.430594
O       3.88769     13.63195      6.63880         0.822741     -0.276223     -0.140250
O      15.60475      1.84518      6.61224         0.171074      0.155146      0.009712
O       0.01408     13.54398      6.75577        -0.472359      0.750166     -0.684244
O       3.86756      1.84705     10.93063         0.831503      0.288445     -0.328798
O       3.84821     13.68054     10.68182         0.779358     -0.100795      0.431812
O       0.05981      1.84820     10.95079        -0.101735      0.274853     -0.267363
O      15.55162     13.71813     11.04465         0.764687     -0.311415     -0.436627
O       3.93179      5.91463      2.48872        -0.769801      0.129376      0.180650
O       3.97447      5.84848     14.93730        -0.116412     -0.107759      0.076816
O      15.50207      5.71381      2.43207         0.972898      0.063859      0.499269
O       0.08291      5.62013     14.96998         0.158442      1.321670     -0.037844
O       3.93976      5.85115      6.59806        -0.353410     -0.425721      0.577934
O       0.04904      5.73435      6.66329         0.235650      0.106717     -0.009459
O       3.88984      5.70215     10.69038         0.361369      0.319074      0.165886
O      15.59957      5.64891     10.88645         0.585103      0.474249     -0.177379
O       3.91008      9.66429      2.36234        -0.401464     -0.166228      0.541216
O       3.88503      9.77950     14.96000        -0.124076     -0.075230     -0.046489
O      15.56646      9.73084      2.47165        -0.113789     -0.012339     -0.113348
O      15.59110      9.75075     15.11545        -0.280650     -0.188506     -0.398321
O       3.90001      9.79798      6.53721         0.800302      0.281675      0.185796
O       0.01501      9.64506      6.61728         0.241172      0.393698      0.242235
O       3.89214      9.69263     10.89011        -0.186007      0.094414     -0.247106
O       0.06204      9.64842     10.78339         0.296662      0.351733      0.367228
O       7.75283      1.98566      2.51615         0.313448     -0.587943     -0.192381
O       7.85560      1.88758     15.11065         0.322885     -0.002794     -0.622256
O       7.79115     13.38980      2.54468        -0.554266      0.715374     -0.500611
O       7.74693     13.48109     14.76147         0.684310      0.634714      0.162375
O       7.75245      1.94949      6.67415        -0.088331     -0.144565      0.194532
O       7.89395     13.74562      6.54102        -1.151114     -0.340458      0.019475
O       7.84366      2.02455     10.75172        -0.338340     -0.379550     -0.029382
O       7.72862     13.76397     10.82681         1.232052     -0.270219      0.242892
O       7.77169      5.81514      2.39480         0.500049     -0.418081      0.153200
O       7.76682      5.75128     15.14313         0.047015      0.676041     -0.808468
O       7.76892      5.87737      6.70088         0.140973     -0.258906      0.010605
O       7.84246      5.78897     10.79935        -0.290850      0.145024     -0.097370
O       7.90795      9.86282      2.45870        -1.110510     -0.069971      0.526574
O       7.80068      9.77125     14.85250        -0.603081      0.075744      0.428272
O       7.89566      9.62366      6.52356        -0.700061     -0.089373      0.399299
O       7.68094      9.65269     10.70224         0.893084      0.355820      0.366104
O      11.67721      1.74200      2.59817         0.250265     -0.316359      0.039412
O      11.71767      1.88830     14.84739        -0.452892     -0.205070      0.284464
O      11.65641     13.67357      2.40692         0.607534      0.147272     -0.076028
O      11.76968     13.59571     15.04085        -1.275114      0.559532     -0.085208
O      11.61226      2.00277      6.61891         1.413136     -0.310319      0.267315
O      11.72200     13.54755      6.73073         0.311236      0.066847      0.045637
O      11.79830      1.96326     10.75688        -1.057599     -0.505895      0.425784
O      11.68754     13.54727     10.63446        -0.065011     -0.170213      0.704142
O      11.67361      5.78333      2.62092         0.173453      0.440377     -0.026441
O      11.70906      5.93434     14.90484         0.150530     -0.356125      0.230833
O      11.71566      5.84461      6.67410         0.480374     -0.234753      0.113477
O      11.74407      5.96113     10.85078        -0.354962     -0.267741      0.365504
O      11.70995      9.66092      2.59244         0.341495     -0.194589     -0.359011
O      11.67137      9.51748     14.85765         0.145808      0.146941      0.095035
O      11.73826      9.68924      6.85717         0.176722     -0.012136     -0.344295
O      11.75018      9.78636     10.74760        -0.806050     -0.053640      0.201007
O       2.00878      3.89055      2.53560        -0.169270      0.513835     -0.094646
O       2.07501      3.94237     14.98034         0.110965     -0.675518     -0.289248
O       1.80288      0.03754      2.41020         0.226737     -0.689951     -0.109130
O       1.96083     15.53616     14.97094        -0.049116      0.617615     -0.053014
O      13.38365      3.80023      2.54436         0.856561      0.122358     -0.246178
O      13.79398      3.87476     14.95877        -1.110676     -0.749497      0.171993
O      13.71840     15.53952      2.48815         0.102924      0.083138      0.396055
O      13.78248     15.57953     14.83798        -0.603138      0.532477      0.348115
O       2.04036      3.79127      6.64678        -0.113774      0.177665     -0.021032
O       1.97000     15.55083      6.56017        -0.272590     -0.097191      0.087726
O      13.69162      3.85810      6.62328         0.022439     -0.161665      0.368179
O      13.53733     15.54188      6.59293         0.406725      0.362251      0.187090
O       1.90971      3.79554     10.85209         0.630216     -0.017470     -0.191359
O       1.88851     15.53354     11.06926         0.395343      0.626443     -0.429776
O      13.63396      3.85390     10.82929        -0.018201      0.215043      0.086102
O      13.64099     15.59145     10.97693        -0.207525     -0.274001     -0.145001
O       1.82411      7.80586      2.62711         0.327399     -0.420052     -0.362922
O       1.94218      7.82688     14.86513        -0.050614     -1.281581      0.511289
O      13.62346      7.75848      2.41244         0.061464     -0.335947      0.220620
O      13.75846      7.74683     14.91247         0.407246     -0.324261      0.432392
O       2.15005      7.79774      6.51591        -0.356910     -1.166964      0.197034
O      13.76352      7.76112      6.70279        -0.473525     -0.326245      0.564750
O       1.83118      7.69741     10.86915         0.954933      0.045722     -0.149664
O      13.85375      7.77305     10.68844        -0.232883     -0.340901      0.131232
O       2.03663     11.68123      2.38733        -0.457041      0.008499      0.212946
O       1.85258     11.73410     15.08161         0.400610     -0.723173     -0.500902
O      13.62456     11.61961      2.41423        -0.222790      0.032446      0.378966
O      13.58999     11.64250     14.97178         0.240227     -0.314313     -0.197771
O       1.93222     11.66175      6.69174         0.227570      0.278989      0.115382
O      13.68748     11.67801      6.78728        -0.110362     -0.237436     -0.389260
O       1.90832     11.67830     10.70500         0.201007     -0.156919      0.339856
O      13.85518     11.64859     10.81483        -0.653295      0.691596      0.179073
O       5.77811      3.89963      2.31488        -0.059936     -0.062352      0.404059
O       5.90738      3.83335     14.93434        -0.308383      1.064765      0.324440
O       5.83149     15.57172      2.45382         0.235247     -0.260707     -0.014714
O       5.87848     15.59899     14.87153        -0.064026     -0.960457      0.403156
O       5.80934      3.81922      6.57829         0.045498      0.158858      0.202284
O       5.84918     15.59682      6.59827         0.382677     -0.620115     -0.264953
O       5.89584      3.83134     10.83412        -0.275552      0.436516     -0.186771
O       5.88965     15.59393     10.82128        -0.185705      0.764012      0.039192
O       5.97637      7.85955      2.50915        -0.111628     -0.767831     -0.260992
O       5.80501      7.81267     14.95391         0.508923     -0.136455     -0.168055
O       5.82403      7.84816      6.71150         0.084119     -0.712917     -0.026990
O       5.75125      7.81852     10.73314         0.034071     -1.295177     -0.094227
O       5.63187     11.71569      2.36919         0.323084     -0.444589      0.374435
O       5.78305     11.70754     14.91522         0.049529     -0.209014      0.052499
O       6.02465     11.70262      6.55727        -0.421593      0.409003     -0.295696
O       5.85920     11.71129     10.70740        -0.323269     -0.456152      0.436355
O       9.86836      3.74809      2.52931        -0.490305      0.766334      0.365103
O       9.74406      3.85444     14.84670         0.079405     -0.386070      0.371648
O       9.67028     15.43246      2.48713        -0.371877      0.571247      0.056994
O       9.79253     15.54206     14.95957        -0.107276      0.255731      0.149068
O       9.72858      3.91347      6.65363        -0.327810     -0.469106      0.233874
O       9.82939     15.56474      6.72518        -0.097557      0.157095      0.178086
O       9.98429      3.88904     10.80309        -0.631428      0.086406      0.280510
O       9.85909      0.03897     10.62090        -0.222106     -0.753830      0.628610
O       9.68161      7.78705      2.39022         0.201539     -0.802321      0.214486
O       9.54846      7.72664     15.06741         0.688065      0.266526     -0.251752
O       9.82619      7.65401      6.81450        -0.275672      1.334079     -0.018058
O       9.72384      7.82370     10.84656         0.093456      0.225797     -0.060222
O       9.83379     11.62352      2.39939         0.261114      0.398266      0.641126
O       9.80844     11.66618     14.88840         0.261225      0.118754     -0.019382
O       9.74033     11.64451      6.48724        -0.134023     -0.108982      0.447696
O       9.58895     11.73543     10.94769         0.513448     -0.476976     -0.516303
