  # total energy = -7881.29179824 
CRSYTAL
PRIMVEC
    15.6080000000000005    0.0000000000000000    0.0000000000000000
     0.0000000000000000   15.6080000000000005    0.0000000000000000
     0.0000000000000000    0.0000000000000000   16.6239999999999988
PRESSURE
-0.447516 -0.204016 0.658312 -0.263694 0.182616 -0.022835
PRIMCOORD
320 1
Pb       3.85330      3.78936      4.07334         0.389198      0.792805      0.560172
Pb       3.78940      3.78580      0.04939         0.535093      0.460413     -0.101607
Pb       3.90634     15.52403      4.21007         0.189285     -0.051907      0.279640
Pb       3.89238     15.53129      0.05915         0.171304      0.202850     -0.091320
Pb      15.47914      3.82763      4.13966         0.176519      0.294397     -0.543344
Pb      15.55203      3.89944     16.54942         0.142781     -0.080300      0.714897
Pb       0.10396      0.01034      4.17486        -0.251580     -0.501549      0.050491
Pb       0.06434     15.55682     16.62011        -0.357900      0.203019      0.533291
Pb       3.96567      3.98069      8.35130         0.227446     -0.294275     -0.675346
Pb       3.92720      0.15557      8.46429        -0.056575     -0.467219     -0.481971
Pb       0.02889      3.91137      8.23048        -0.418020      0.440569     -0.190056
Pb       0.09516      0.05237      8.28619        -0.242061     -0.065709     -0.096358
Pb       3.83914      3.99775     12.44356        -0.290178      0.065418     -0.318921
Pb       3.83619     15.52491     12.34911         0.450450      0.623235      0.232966
Pb      15.54291      3.76420     12.24754        -0.208822      0.008113      1.333628
Pb      15.51642     15.59274     12.39794         0.514538      0.425342     -0.067377
Pb       3.81092      7.76315      4.17945         0.379933      0.180236     -0.560071
Pb       3.77347      7.78851     16.57810         0.772653     -0.317616      0.304763
Pb      15.57792      7.82963      4.03920         0.119575      0.005796      0.102386
Pb       0.00629      7.79990     16.62377        -0.017443     -0.069437     -0.073020
Pb       4.02899      7.82210      8.24569        -0.422683      0.149242      0.849825
Pb       0.02119      7.83932      8.23138        -0.229566     -0.337161      0.485272
Pb       3.78631      7.85842     12.54071         0.107271     -0.236341     -0.252111
Pb      15.57055      7.75946     12.42024        -0.341913     -0.370959      0.070678
Pb       3.95762     11.69139      4.19894        -0.046263     -0.364528      0.203195
Pb       3.88484     11.67053     16.51268         0.010337     -0.302947      0.565119
Pb       0.03920     11.81232      4.16414        -0.046234     -0.422287     -0.143438
Pb       0.06256     11.77130      0.07367        -0.226780     -0.086776      0.169210
Pb       3.88433     11.62187      8.26074         0.140928      0.212963      0.324193
Pb      15.45121     11.72046      8.29171         0.230279     -0.225258      0.054825
Pb       3.76903     11.82744     12.53064         0.749425     -0.508313      0.109277
Pb      15.50532     11.55505     12.37482        -0.443862      0.625446      0.210422
Pb       7.73274      3.92387      4.08919         0.540524     -0.084586      0.474955
Pb       7.61888      3.68120      0.00408         0.098314      0.537573      0.312922
Pb       7.71451     15.60173      4.06819         0.333294      0.102794      0.854461
Pb       7.76957     15.43525      0.02478         0.436370      0.649131     -0.768091
Pb       7.76722      3.94635      8.28231         0.374229     -0.295380      0.073010
Pb       7.80348     15.53109      8.44629         0.305536      0.359905     -0.226822
Pb       7.76330      4.04643     12.47979         0.400581     -0.075288     -0.028187
Pb       7.88400      0.11744     12.50576        -0.434899     -0.304565     -0.291263
Pb       7.61540      7.79401      3.97052         0.545873     -0.318989      0.430761
Pb       7.89513      7.82754     16.53994        -1.133461     -0.950827      0.060322
Pb       7.83424      7.81641      8.43199         0.145447      0.094136     -0.659584
Pb       7.83373      7.79574     12.55281         0.124680     -0.287543     -0.244506
Pb       7.72649     11.77090      4.05495         0.486554     -0.565911      0.904887
Pb       7.80653     11.53138     16.60827         0.058493      0.461064     -0.635935
Pb       7.62163     11.64935      8.35313         0.091574     -0.405256     -0.356863
Pb       7.72899     11.64829     12.51616         0.296795      0.083096      0.254887
Pb      11.66633      4.02306      4.19998        -0.189383     -0.369831     -0.430682
Pb      11.74800      3.81303     16.47181        -0.563977      0.045851      0.995982
Pb      11.81971      0.22112      4.21470        -0.389972     -0.485534     -0.039772
Pb      11.70118     15.55657      0.02321        -0.096868      0.053373     -0.262516
Pb      11.66010      3.81450      8.22617         0.102873      0.554467     -0.057990
Pb      11.54238     15.44410      8.21175         0.268565      0.307413      0.046232
Pb      11.62528      3.85172     12.42226         0.046819      0.160098      0.001918
Pb      11.85131     15.52433     12.42694        -1.151841      0.421547      0.861104
Pb      11.74209      7.73312      4.01894        -0.278353      0.280943      0.177506
Pb      11.64562      7.73081     16.57760         0.271946      0.253860     -0.022658
Pb      11.69891      7.85149      8.08316        -0.293289     -1.006698      1.197148
Pb      11.76396      7.66113     12.47946        -0.464832     -0.151717     -0.447084
Pb      11.56271     11.90194      4.27081         0.670728     -0.672117     -0.770797
Pb      11.86251     11.78390     16.60370         0.114220     -0.012233     -0.147370
Pb      11.68120     11.62028      8.19259        -0.014868      0.003467      0.360578
Pb      11.56832     11.60620     12.35928         0.442439      0.076938      0.631517
Ti       2.00711      1.88621      2.37201        -0.639189     -0.113474     -0.577019
Ti       1.93458      1.84453     14.79110        -0.323076      0.514506     -1.696827
Ti       2.14169     13.53082      2.29997        -1.422639      0.572602     -0.868720
Ti       1.95385     13.58171     14.63981         0.224475      0.443883      0.491589
Ti      13.67117      1.90893      2.20394        -0.083944      0.428604     -0.403909
Ti      13.63858      1.97930     14.77617        -0.120611     -0.195865     -0.975767
Ti      13.70021     13.59897      2.29357        -0.324498      0.675368     -0.517288
Ti      13.73300     13.73755     14.64240        -0.724141     -0.751842      1.643436
Ti       1.90872      2.09202      6.37109         0.741206     -1.948144      0.403396
Ti       1.92268     13.62200      6.47851         1.641676      1.097061     -0.194008
Ti      13.63711      1.97156      6.29981        -0.238150     -0.235244      0.622534
Ti      13.71318     13.64052      6.30602        -0.335948      0.799939      0.670701
Ti       1.98298      1.91645     10.53249        -0.526687     -0.009134      0.117674
Ti       1.91085     13.59334     10.49635        -0.369289      0.971319     -0.206722
Ti      13.53583      1.89124     10.37451         0.874359      0.066119      1.247824
Ti      13.55952     13.66777     10.56301         0.901026     -1.014991     -1.370852
Ti       1.94713      5.79225      2.23941        -0.099555      0.241008      1.026698
Ti       1.90980      5.75725     14.69940         0.384789      0.140367     -0.924054
Ti      13.72867      5.90264      2.06655        -0.771641     -0.859788      1.542863
Ti      13.62884      5.96796     14.70748         0.494673     -0.961550     -0.274305
Ti       2.03009      5.97882      6.25390        -0.612056     -0.737402      0.792366
Ti      13.76178      5.87447      6.20703        -0.644744     -0.694104      2.116274
Ti       1.86571      5.93767     10.47118         0.738404     -0.867207      0.699501
Ti      13.70249      5.70181     10.40196        -1.712952      0.904301     -1.149852
Ti       1.97269      9.74591      2.26485         0.500294     -0.143218      0.264623
Ti       1.90578      9.76948     14.69227         0.459629     -0.768680      0.197713
Ti      13.60091      9.80229      2.25001         0.222012      0.287546      0.345373
Ti      13.72714      9.79747     14.65886        -1.356439      0.297670     -0.043585
Ti       1.87510      9.75768      6.34070         0.529517     -0.163526      0.184769
Ti      13.62119      9.69128      6.35701         0.027834      0.510425     -0.834368
Ti       1.83816      9.78201     10.56659         0.960802     -0.292895     -0.980544
Ti      13.55283      9.59785     10.55800        -0.313334      0.452992     -0.535199
Ti       5.89173      1.85013      2.30525        -0.394706      0.397624     -1.181725
Ti       5.76213      1.93270     14.60173         0.692697      0.124866      0.442966
Ti       5.89432     13.46822      2.12092        -0.954373      1.771594      0.506459
Ti       5.89665     13.66201     14.62059        -0.235986     -0.531938     -0.446634
Ti       5.87307      1.93221      6.41431        -0.003928     -0.377392      1.180030
Ti       5.85310     13.71854      6.50583        -0.707749     -0.864291      0.914115
Ti       5.92090      2.08476     10.58416        -0.568196     -1.073301     -0.466456
Ti       5.87838     13.58133     10.61345        -0.192430      0.750153      1.078758
Ti       5.76039      5.75377      2.22898         0.606665      0.618783     -1.375438
Ti       5.79921      5.81380     14.60082         0.320247      0.421901      2.160930
Ti       5.92952      5.88401      6.37807        -0.489641     -0.364807      0.078940
Ti       5.81295      5.90575     10.46903         0.510697     -0.688905      0.370216
Ti       5.85686      9.74898      2.12245        -1.347523     -1.679733      0.311313
Ti       5.82194      9.76323     14.71414        -0.181493     -1.178857      1.051441
Ti       5.78311      9.68885      6.31670         0.960479      0.889079      0.869291
Ti       5.76830      9.68757     10.69442         0.229612      0.394665     -1.108285
Ti       9.78530      1.90049      2.22330         0.246149      0.992628      0.351046
Ti       9.65061      1.94436     14.67466         0.302088     -0.387364      0.534790
Ti       9.70589     13.70961      2.21105         1.432532     -0.030566     -0.275255
Ti       9.80277     13.58729     14.66825        -0.144497      0.868184     -0.695261
Ti       9.70988      1.87165      6.41560         0.185054      0.280547     -0.374742
Ti       9.71960     13.50021      6.33556        -0.683544      1.408352      0.966762
Ti       9.76652      1.90516     10.55699        -0.697638      0.053294     -1.450456
Ti       9.72863     13.62776     10.61486        -0.349655      0.013566     -0.326120
Ti       9.77668      5.76593      2.15027         0.198834      0.104579      0.824853
Ti       9.71065      5.77432     14.76226        -0.643873     -0.390616     -0.884334
Ti       9.79713      5.81312      6.35544         0.128060     -0.269256     -0.455623
Ti       9.75730      5.84143     10.54316         0.102756     -0.175089     -1.010022
Ti       9.75752      9.77656      2.11866         0.443216     -0.069759      2.135962
Ti       9.78444      9.72854     14.70895         0.694742      0.009314      0.409760
Ti       9.68754      9.72805      6.22301        -0.678418     -0.642641      0.914049
Ti       9.68750      9.70319     10.56800         0.008428     -0.407758     -1.121167
O       1.93920      1.91571      0.61624         0.449957     -0.149650     -1.305927
O       1.93722      1.74082     12.98739        -0.077762      0.610021      0.660012
O       2.05895     13.35192      0.49497         0.365378      0.754434     -0.337760
O       1.89238     13.63976     12.89622        -0.046155      0.074957      0.194927
O      13.60496      1.93239      0.38979         0.075754     -0.455387      0.599553
O      13.67613      2.03006     12.98731        -0.403399     -0.380826      0.137965
O      13.55047     13.66592      0.44970         0.415480     -0.223747      0.800356
O      13.67636     13.75927     12.92349        -0.044627     -0.258509     -1.647453
O       1.87869      1.82845      4.59231         0.502792      0.228787     -0.111591
O       1.95201     13.70975      4.67887         0.247448     -0.419873     -0.484591
O      13.72919      1.97761      4.49768        -0.033422      0.152246     -0.033816
O      13.74503     13.58325      4.56149         0.183664      0.006459     -0.633489
O       1.87531      1.91408      8.75767        -0.049149      0.246889     -0.524451
O       2.02227     13.50966      8.72506        -0.468301      0.381372      0.352780
O      13.62147      1.85265      8.67083         0.207931     -0.042504     -1.199242
O      13.54772     13.70410      8.75685         0.076105     -0.356124      0.424821
O       1.87620      5.75883      0.52284         0.050011      0.144514     -1.880716
O       2.09343      5.74556     12.86972        -0.522420      0.302723      0.592397
O      13.68675      5.99008      0.32587         0.144638     -0.074469     -0.728010
O      13.57550      5.81487     12.92019        -0.045753      0.394215      0.385434
O       2.01551      5.93912      4.50839         0.061962     -0.033295     -0.431084
O      13.67212      5.87274      4.44744        -0.050509     -0.172805      0.096008
O       1.78566      6.00215      8.73255         0.241598     -0.833111     -0.287776
O      13.77252      5.80277      8.60825         0.137598     -0.037779      1.319781
O       2.00342      9.90861      0.50012        -0.564960     -0.489764     -0.916216
O       2.01004      9.73342     12.90662        -0.471361     -0.401610     -0.036800
O      13.64854      9.87628      0.47249         0.203013     -0.060803     -0.024538
O      13.68345      9.66852     12.82329         0.066631      0.110420      0.759593
O       1.98839      9.66097      4.56210         0.080588      0.367290      0.699617
O      13.63764      9.69496      4.60655         0.247828     -0.062045     -0.069522
O       1.91703      9.71721      8.79869        -0.142959      0.124096      0.526781
O      13.57406      9.70461      8.76962        -0.083828      0.161802     -0.073331
O       5.80118      1.94131      0.48284         0.035269     -0.427499      0.817161
O       5.84966      1.97229     12.82653        -0.131597      0.221883      0.292307
O       5.76086     13.63179      0.38148         0.114975      0.002576     -0.447137
O       5.87262     13.43833     12.81832         0.118274      0.887037      1.330864
O       5.86164      1.78688      4.66464         0.017593      0.169156     -0.867371
O       6.00818     13.57046      4.78248        -0.284427      0.169452     -1.538239
O       5.95141      2.00315      8.77985        -0.551402      0.121883      0.411386
O       5.65920     13.44464      8.87764         0.636075      0.135115     -0.226906
O       5.96839      5.61364      0.44970        -0.479541      0.541521      0.808945
O       5.87919      5.87687     12.83544        -0.770370     -0.213660     -0.147435
O       5.76196      5.88015      4.61626         0.315470     -0.153414     -0.203228
O       5.94502      5.83322      8.66740        -0.409877     -0.316395     -0.175676
O       5.88282      9.61362      0.35601         0.121233      0.472237      0.643656
O       5.81996      9.68303     12.96541        -0.076628     -0.772123     -0.925349
O       5.75559      9.81554      4.57488         0.008466     -0.201419     -0.625257
O       5.79902      9.73259      8.84427         0.497990     -0.062390      0.826764
O       9.73808      1.92419      0.47451        -0.028704     -0.359606     -0.317789
O       9.72450      2.12623     12.90868        -0.324394     -0.649932     -0.906304
O       9.81764     13.88317      0.42944        -0.351564     -0.566571      0.452385
O       9.83201     13.54592     12.86392        -0.477842      0.227689      0.757101
O       9.91580      1.91295      4.62924        -0.654255      0.097758      0.138592
O       9.57822     13.50809      4.56997         0.182518     -0.093655     -0.188375
O       9.78909      1.72205      8.69687        -0.063820      0.367080      1.130662
O       9.84716     13.75308      8.81154         0.005138     -0.590172      0.023205
O       9.84104      5.93911      0.37070        -0.498173     -0.194975      0.198331
O       9.81911      5.73984     12.93763         0.021108     -0.093841     -0.118636
O       9.86989      5.64608      4.55335        -0.035710      0.230804      0.344136
O       9.70408      5.83974      8.73511        -0.323000      0.247815      0.355534
O       9.63673      9.62397      0.36729         0.566649      0.237025      0.049602
O       9.72892      9.72230     12.97830         0.241161      0.051197     -0.440581
O       9.92369     10.03674      4.51823        -0.919199     -0.650586     -0.164215
O       9.63775      9.58743      8.72496        -0.162807      0.193795      1.094904
O       3.95483      1.95075      2.66197        -0.237748     -0.068223     -0.167783
O       3.85372      1.96691     15.02126        -0.018812     -0.081111      0.175984
O       4.05782     13.61076      2.71199        -0.127782     -0.627445     -0.272766
O       3.95535     13.37848     14.88000        -0.592660      1.005522     -0.064256
O       0.08904      1.73384      2.58298        -0.689945      0.611273     -0.203999
O      15.58636      1.86187     15.11347         0.398724      0.005071      0.011520
O       0.14786     13.55262      2.48702        -1.087202      0.427055      0.162958
O       0.03959     13.66613     15.03157         0.256184     -0.178588      0.015755
O       3.92894      1.82635      6.85922        -0.756780      0.494155     -0.537557
O       3.91040     13.67560      6.76281        -0.356267     -0.085128     -0.293858
O       0.00015      2.10491      6.66184         0.024255     -0.497975      0.043201
O       0.06872     13.56206      6.73472        -1.797017      0.156753      0.172151
O       3.87247      1.93975     10.72600         0.206915      0.321283      0.322627
O       3.82811     13.59609     11.04580         0.320000     -0.343300     -0.919993
O      15.54641      1.91232     10.87473        -0.395281     -0.771455     -0.576633
O      15.57887     13.82762     10.83206        -0.260224     -0.725544     -0.288494
O       3.89162      5.72752      2.45997        -0.309473     -0.261492      0.255000
O       3.84201      5.63823     14.97302         0.254437      0.265666      0.083445
O      15.57741      5.87031      2.50153         0.330797      0.179512      0.051195
O      15.58207      5.93897     14.97280         0.067965     -0.295175      0.097186
O       3.89813      6.06045      6.72013        -0.088429     -1.078923     -0.135899
O       0.03816      5.82565      6.53797        -0.293801     -0.158474     -0.101101
O       3.90242      5.91591     10.69551        -1.262069     -0.676267      0.275564
O      15.50028      5.79002     10.93265         0.975629      0.132558     -0.383298
O       3.94802      9.84942      2.50310         0.086031      0.012453      0.162676
O       3.91496      9.67181     15.13325        -0.995741      0.163176     -0.754009
O       0.12091      9.80914      2.70515        -1.011456     -0.309526     -0.777173
O      15.59345      9.81849     14.98415         0.795125     -0.372314      0.029657
O       3.85767      9.56295      6.73310        -0.416522      0.686332     -0.571289
O      15.52541      9.71380      6.80233         0.699020      0.412355     -0.651859
O       3.89869      9.71449     10.92454        -0.985790     -0.253955      0.033118
O      15.55834      9.61481     10.79105         0.089003      0.629212      0.510656
O       7.80292      1.94637      2.61116        -0.005115      0.093880     -0.154301
O       7.77991      1.89044     15.05769        -1.278901     -0.219182     -0.279232
O       7.71371     13.70598      2.48275         1.193686     -0.025469     -0.173199
O       7.76579     13.51289     15.05083        -0.133661      0.541412     -0.035316
O       7.83207      1.95171      6.73559        -0.368515     -0.181738     -0.268312
O       7.77503     13.58152      6.83440         0.737374     -0.378281      0.277672
O       7.74465      1.84502     10.78733         1.197336      0.344334      0.529826
O       7.82768     13.58582     10.78495        -0.798079     -0.176013      0.068917
O       7.83272      5.76040      2.66351         0.412725      0.687518     -0.711301
O       7.73894      5.88428     14.84598         0.689505     -0.090911      0.257891
O       7.77347      5.72949      6.65695         0.499702     -0.052311     -0.285129
O       7.75620      5.81283     10.87087         1.028109      0.348857      0.035444
O       7.75770      9.73628      2.50029         0.896246     -0.430394     -0.191883
O       7.76799      9.66220     15.08403         0.783268     -0.021052     -0.507425
O       7.71862      9.69932      6.52548         0.736426      0.206310      0.259506
O       7.84031      9.74126     11.09063        -0.769255     -0.742781     -0.788955
O      11.74024      1.88976      2.56233         0.565532     -0.098915     -0.335560
O      11.56052      2.00432     14.97455         1.457884     -0.335276      0.130246
O      11.71797     13.64888      2.58189        -0.649711     -0.112819     -0.081642
O      11.68778     13.64089     14.96926         0.487545      0.287477      0.157828
O      11.75918      1.97588      6.56706         0.066149     -0.403236      0.315251
O      11.68967     13.60786      6.54179        -0.348723     -0.498093      0.179848
O      11.62603      1.82002     10.76640         0.801953      0.356457      0.361951
O      11.61035     13.58395     10.94343         1.602129      0.124477     -0.172837
O      11.78315      5.85622      2.42335        -0.482568      0.109585      0.185278
O      11.73618      5.75050     14.99911        -0.186769      0.580080      0.040525
O      11.71085      5.79615      6.69501         0.122611      0.111349     -0.435014
O      11.68465      5.74962     10.68034         0.220961      0.158429      0.752588
O      11.75727      9.93110      2.66341        -1.130857     -0.703590     -1.190008
O      11.74150      9.66650     15.01716        -0.220829      0.591761     -0.142485
O      11.63703      9.65398      6.68839         0.433924      0.714101     -0.310413
O      11.60730      9.66571     10.79296         1.168839      0.446230      0.430694
O       1.90055      3.88474      2.61831         0.125456     -0.910880      0.271701
O       1.83858      3.88031     15.15119         0.141320     -0.728618     -0.640804
O       2.21472     15.46114      2.47466        -0.396604      0.921899      0.316730
O       2.00107     15.53230     15.15990         0.209842     -0.364180     -0.087997
O      13.71861      3.88222      2.36361         0.365443     -0.244274      0.338134
O      13.70272      3.88763     15.11777        -0.134891      0.365798     -0.544891
O      13.68857     15.55922      2.59480         0.126904     -0.011122     -0.203516
O      13.69183     15.60770     14.99155        -0.346587     -0.020822      0.156378
O       2.01001      3.92982      6.51107         0.329242      0.461203      0.587347
O       1.81180      0.00932      6.75181         0.292288     -0.106646      0.022422
O      13.63156      3.91504      6.70434         0.370012     -0.021302     -0.605907
O      13.66048     15.59859      6.43247         0.463663     -0.068795      0.534922
O       1.78204      3.82381     10.87007         1.112618      0.698736     -0.453536
O       2.01350     15.55926     10.80146        -0.277479      0.184331     -0.074715
O      13.55531      3.79790     10.66793         0.356586      0.143992      0.306068
O      13.52456     15.56669     10.87511         0.351990      0.435845     -0.176857
O       2.07140      7.74096      2.47265        -0.383645      0.891751      0.085227
O       1.96702      7.72121     15.02286        -0.146289      0.710902     -0.102102
O      13.69352      7.85973      2.46634        -0.017458     -0.189015     -0.046155
O      13.73160      7.90792     15.11059        -0.327538     -0.766844     -0.630636
O       1.84969      7.80235      6.65585        -0.097761      0.673641     -0.099048
O      13.64926      7.77346      6.62102         0.036677     -0.220757     -0.114184
O       1.76628      7.75878     10.81044         0.608614      0.530738      0.617626
O      13.59590      7.72011     10.77842         0.122919     -0.085371      0.349709
O       1.99013     11.69024      2.58979         0.555108     -0.437884      0.846852
O       1.98433     11.61978     14.94033        -0.312204      0.701061     -0.043488
O      13.70093     11.68261      2.59128         0.393247      0.904728     -0.026245
O      13.70662     11.76193     15.01419        -0.250994     -0.504904     -0.253261
O       1.90438     11.66156      6.73538         0.236479     -0.775057     -0.470963
O      13.65723     11.70655      6.55814        -0.234585     -0.446819      0.864297
O       1.78813     11.73482     10.91992         0.207786     -1.146395     -0.230637
O      13.71082     11.70356     10.82741        -0.267080     -0.015281      0.091873
O       5.88051      3.90968      2.58138        -0.159626     -1.432274      0.561833
O       5.87596      3.79569     15.08392        -0.324206      0.335119     -0.961528
O       5.84443     15.57682      2.59516        -0.075484     -0.169014     -0.376441
O       5.75059     15.59576     14.89216         0.192569     -0.981148      0.178451
O       5.72771      3.78197      6.66117         0.098771      1.574967      0.218607
O       5.90505     15.56208      6.94728        -0.059272      0.295791     -0.420574
O       5.89751      3.98445     10.84150        -0.559102     -1.012975      0.029370
O       5.87738     15.58635     10.93030        -0.401056     -0.927487     -0.359917
O       5.64979      7.72742      2.57467         1.134511      0.789460     -0.288288
O       5.72208      7.66401     15.14449         0.167931      0.032173     -0.818924
O       5.92722      7.77490      6.73113        -0.099763      0.112082     -0.179050
O       5.87065      7.70147     10.75295         0.197335      1.896304      0.684026
O       5.96108     11.64513      2.48185        -0.400292      0.228471     -0.278884
O       5.90351     11.57259     14.96716         0.036727      1.116765      0.263058
O       5.72208     11.63453      6.81141         0.440988     -0.272551     -0.355340
O       5.89143     11.56249     11.08440        -0.348092      0.835488     -1.070703
O       9.89655      3.85385      2.51675        -0.522933      0.792372     -0.178394
O       9.59057      3.86781     15.06433         0.474759      0.660944      0.013397
O       9.73050      0.05472      2.54962        -0.162369     -1.557031      0.234007
O       9.57855     15.59007     14.94068         0.452361     -0.475165     -0.068622
O       9.80556      3.81661      6.77399        -0.335310      0.267177     -0.128797
O       9.72946     15.49982      6.65209         0.007165     -0.242996     -0.127370
O       9.71011      3.83379     10.80710         0.005733      0.044873     -0.058612
O       9.69497     15.57234     10.93724         0.082182     -0.061831      0.210901
O       9.86170      7.79625      2.59828        -0.553160      0.600038     -0.627728
O       9.79705      7.73770     14.87139        -0.148325      0.408199      0.663366
O       9.69859      7.69488      6.45916         0.032055      0.937372      0.337154
O       9.79646      7.77417     10.91535        -0.561608     -0.584346      0.230371
O       9.64137     11.75075      2.39003         0.022578     -0.228131     -0.310901
O       9.75683     11.72405     15.04278        -0.112261     -1.090505      0.297271
O       9.69801     11.54889      6.80693         0.245774      1.545109     -0.338819
O       9.71532     11.60377     10.98882         0.115884      0.596038     -0.897669
