  # total energy = -7881.19497845 
CRSYTAL
PRIMVEC
    15.6080000000000005    0.0000000000000000    0.0000000000000000
     0.0000000000000000   15.6080000000000005    0.0000000000000000
     0.0000000000000000    0.0000000000000000   16.6239999999999988
PRESSURE
-0.360493 -0.467388 -0.73584 -0.004436 -0.014752 -0.009235
PRIMCOORD
320 1
Pb       4.04546      3.94664      4.24355        -0.265665      0.176206     -0.563667
Pb       3.94281      3.95368     16.55472        -0.249919     -0.039846     -0.197355
Pb       3.94261      0.09518      4.06676        -0.304419     -0.567227      0.327513
Pb       3.83056     15.59719     16.45839        -0.048191      0.124252      0.472427
Pb       0.00379      3.86161      4.12613        -0.300925     -0.085220      0.297336
Pb      15.57643      3.77444     16.60446         0.526437      0.093794     -0.043803
Pb      15.52365     15.60102      4.07936         0.094121      0.001203      0.096172
Pb      15.58576      0.03770     16.59941         0.245021     -0.017618     -0.004542
Pb       3.82822      3.82723      8.25021         0.044510      0.473523     -0.026375
Pb       3.97803      0.02528      8.20083         0.095898     -0.144217     -0.271887
Pb      15.52242      3.91196      8.27769         0.376576      0.457137      0.638530
Pb       0.02439     15.57190      8.24404         0.024973     -0.364941      0.079366
Pb       3.70547      3.94756     12.65068         0.251026     -0.046869     -0.639035
Pb       3.84202     15.48934     12.55410         0.055168     -0.134221     -0.695428
Pb      15.58652      3.94225     12.59227         0.043028     -0.042039     -0.878676
Pb       0.15742     15.57008     12.47142        -0.137129     -0.060194     -0.204734
Pb       3.75724      7.88453      3.99994         0.869984     -0.034906      0.400999
Pb       3.91322      7.65818     16.57566        -0.122728      0.433168      0.352599
Pb       0.06078      7.87215      4.09248         0.085163     -0.122096      0.285806
Pb      15.51497      7.74239     16.59718         0.336476      0.249615      0.127747
Pb       3.87763      7.75739      8.34239         0.153473     -0.259574     -0.070411
Pb      15.35711      7.72492      8.53027         0.650203     -0.202175     -0.372352
Pb       3.94535      7.83726     12.43175        -0.109200      0.210981     -0.201052
Pb      15.40685      7.73162     12.51536         0.607999      0.088180     -0.654979
Pb       3.84649     11.69793      4.06991         0.208655     -0.008994      0.117545
Pb       3.91751     11.65063     16.54885         0.082089      0.164406      0.355376
Pb      15.55942     11.74499      4.11802         0.506247      0.050896     -0.078648
Pb      15.55792     11.79227      0.00879        -0.089158     -0.356889     -0.576353
Pb       3.84718     11.88686      8.30898         0.054911     -0.476917      0.110498
Pb       0.00163     11.64367      8.12023         0.229783      0.468453      0.436482
Pb       3.90734     11.66295     12.27778         0.209760     -0.081740      0.502832
Pb       0.06527     11.58015     12.41694         0.215018      0.266206      0.297078
Pb       7.76703      3.67885      4.14693         0.329110      0.254308     -0.782079
Pb       7.81499      3.90227     16.54201        -0.078911      0.069074      0.407723
Pb       7.79198     15.48557      4.14671        -0.196982      0.415835      0.311020
Pb       7.82130      0.10282     16.57430        -0.255363     -0.500356      0.526128
Pb       7.69528      3.80117      8.53827        -0.157967      0.240698     -0.722610
Pb       7.83949     15.58918      8.30730        -0.358470      0.118561     -0.638566
Pb       7.78069      3.64994     12.47869         0.282839      0.493360      1.184934
Pb       7.82132     15.56564     12.50013        -0.254032     -0.243525     -0.164438
Pb       7.91045      7.81237      4.11222        -0.963686      0.337069     -0.440381
Pb       7.69247      7.81092     16.54675        -0.476736     -0.357384      0.488687
Pb       7.91326      7.86331      8.19145        -1.067783     -0.169303      0.302735
Pb       7.91222      7.61017     12.39029        -1.098444      0.606005      0.842032
Pb       7.86597     11.70037      4.06866        -0.629022     -0.685446      0.554929
Pb       7.77207     11.77036     16.48282        -0.077457      0.113762      0.462508
Pb       7.72926     11.71310      8.22707        -0.068966     -0.229049     -0.028018
Pb       7.82841     11.56798     12.39830        -0.012324      0.089298      0.211522
Pb      11.76597      3.80608      4.30355         0.171736     -0.032660     -0.691089
Pb      11.72791      4.10270      0.24841        -0.404636     -0.725128     -0.062070
Pb      11.43907     15.57256      4.15976         0.873762      0.118054     -0.085486
Pb      11.65339     15.59519     16.49887         0.263757     -0.068496      0.794878
Pb      11.65383      4.12063      8.42343        -0.130336     -0.326544     -0.206851
Pb      11.59194      0.10011      8.35636         0.244939     -0.120870     -0.268101
Pb      11.82633      3.74635     12.47774        -0.415743      0.238901     -0.175005
Pb      11.55901     15.49813     12.35848         0.426309      0.291193      0.225229
Pb      11.66135      7.64579      4.02817         0.319386      0.184640      0.494177
Pb      11.68356      7.84018      0.01996         0.222625     -0.081841      0.417230
Pb      11.65801      7.81521      8.28147         0.114669      0.125325     -0.369686
Pb      11.46692      7.97263     12.49932         0.595063     -0.210986      0.270476
Pb      11.81783     11.41804      4.24439        -0.214761      0.535578     -0.133113
Pb      11.82091     11.66783     16.58979        -0.371578     -0.023267      0.080727
Pb      11.77425     11.88112      8.42564         0.023766     -0.524658     -0.653325
Pb      11.74878     11.75585     12.39643        -0.123000     -0.430036      0.107596
Ti       1.90919      1.99179      2.16556        -0.349713     -1.008547     -0.790575
Ti       1.97522      1.96000     14.60126        -0.336885     -0.068912      1.527813
Ti       1.89230     13.64908      2.14775        -0.062555      1.436913      1.409812
Ti       1.89967     13.59840     14.68125        -0.016599     -0.057417     -1.645650
Ti      13.57601      1.87239      2.21115        -0.019507      0.144626      0.495938
Ti      13.69380      1.93605     14.64241        -0.021163     -0.233961     -0.575085
Ti      13.52044     13.57884      2.25105         0.289805      0.773393      0.766180
Ti      13.61492     13.61158     14.58121         0.901046      0.312137     -0.921989
Ti       1.86571      1.95191      6.34364         0.786796     -0.112528      0.646720
Ti       1.93076     13.67641      6.24784        -0.347218     -0.441625      0.325529
Ti      13.62737      1.89779      6.56182        -0.683115      0.055690     -1.597781
Ti      13.55660     13.59678      6.36815         0.559370      0.801164     -0.753061
Ti       1.92589      1.94829     10.54148        -0.050917      0.033331      0.589294
Ti       1.88025     13.56245     10.45770         0.868490      0.874646      0.573402
Ti      13.65716      1.89881     10.56164         0.335079      0.317863      0.478132
Ti      13.73055     13.70511     10.55273         0.145650     -0.891932     -0.533986
Ti       1.97660      5.77893      2.27365         0.233807      0.113359     -0.915752
Ti       1.83025      5.92445     14.70610         0.617740     -0.690954     -0.179426
Ti      13.72115      5.76002      2.24665        -0.522298      0.234744      0.629468
Ti      13.58723      5.77689     14.71266         0.170351     -0.055352     -0.573943
Ti       1.84118      5.89767      6.37054         0.463593     -0.066776      0.258721
Ti      13.58431      5.82576      6.44908        -0.054697      0.464510     -1.442861
Ti       1.97402      5.86633     10.56229        -0.364085      0.290679     -0.523500
Ti      13.55448      5.83909     10.63246         0.858200     -0.279179     -0.308078
Ti       1.94762      9.82573      2.07216         0.171490     -0.727754      0.575733
Ti       1.96558      9.78056     14.64039        -0.334494      0.015676      0.000711
Ti      13.66230      9.62780      2.26790         0.092902      0.248333     -0.767431
Ti      13.64909      9.64389     14.68160        -0.093463      0.845949      0.100900
Ti       2.01067      9.71846      6.33760        -0.489885      0.085707     -0.480975
Ti      13.74321      9.65355      6.36736        -1.263687     -0.458425     -0.200813
Ti       2.02046      9.72681     10.47370         0.179508     -1.256112     -0.052090
Ti      13.68829      9.76978     10.52147         0.265991     -0.402787     -0.143385
Ti       5.79392      1.94760      2.11670         0.700979      0.460257     -0.507501
Ti       5.90418      1.88941     14.75080        -1.479167      0.837346     -0.897883
Ti       5.77299     13.71621      2.20352         0.190621     -0.768868     -0.473024
Ti       5.83405     13.62134     14.66905        -0.101779      0.359516     -0.583259
Ti       5.90863      1.99530      6.31939         0.356195     -1.238686      0.015339
Ti       5.78776     13.56396      6.27108         0.423167      1.733851     -0.873458
Ti       5.76690      1.85861     10.70773         0.024726     -0.197712     -0.505072
Ti       5.85584     13.62594     10.51989        -0.247249     -0.156981     -0.866840
Ti       5.82461      5.87169      2.19976         0.430028      0.369172      0.737806
Ti       5.80427      5.88748     14.61144         0.721416     -0.789713      0.303124
Ti       5.77407      5.82270      6.33984        -0.509194      0.785627     -0.206314
Ti       5.89455      5.64288     10.67678        -1.095520      1.320752      0.325410
Ti       5.84245      9.83955      2.17588        -0.250037     -0.940162      0.014339
Ti       5.73517      9.79099     14.67823         0.922394     -0.662819     -1.382131
Ti       5.74532      9.76553      6.36554         1.069055     -1.269223     -0.806465
Ti       6.00943      9.64150     10.57582        -2.135426     -0.104646     -1.044190
Ti       9.71820      1.86203      2.12081        -0.056941      1.476374      0.424055
Ti       9.89840      1.96106     14.70739        -0.848833      0.240761      0.771437
Ti       9.68176     13.53504      2.23186         0.634713      1.070714     -1.266166
Ti       9.78203     13.58966     14.66092        -0.806058     -0.218250      0.138666
Ti       9.78254      2.05661      6.38710        -0.975028     -1.023085     -0.047141
Ti       9.73651     13.66076      6.33726        -0.698943      0.116630      0.756134
Ti       9.77496      1.90929     10.56202        -0.089213      0.339163      0.510275
Ti       9.75129     13.58946     10.41631        -0.861943      0.711490      0.542444
Ti       9.70703      5.76722      2.22079        -0.390294     -0.731927      0.341342
Ti       9.76470      5.82560     14.79061        -0.556563     -0.794433      0.107028
Ti       9.57104      5.82859      6.25351         0.464920     -0.150217      0.741740
Ti       9.73596      5.76986     10.68760         0.474012     -0.620260     -0.672780
Ti       9.78602      9.76292      2.18740        -0.429398     -0.451545      0.539352
Ti       9.67847      9.65758     14.87410         0.075440      1.148933     -2.328824
Ti       9.74805      9.74858      6.33539         0.598086      0.628144     -0.050807
Ti       9.80610      9.76524     10.45507        -0.290012      0.083179      0.478975
O       1.82599      1.96049      0.32624         0.107425     -0.144975      1.144363
O       1.96971      1.93321     12.84463        -0.015383      0.105596     -1.107997
O       1.70316     13.74162      0.39527         0.066327     -0.496920     -0.852895
O       1.88944     13.54294     12.80337         0.382939      0.336755      1.244366
O      13.61780      2.06923      0.44778         0.204178     -0.529550     -0.380146
O      13.50415      1.94247     12.84594         0.321041     -0.378720      0.839387
O      13.61727     13.71227      0.48733         0.226750     -0.767011     -0.282211
O      13.60145     13.57348     12.73337        -0.293278      0.162147      1.491363
O       1.82978      1.87952      4.61538         0.114738      0.332781     -0.626315
O       1.92269     13.52986      4.50382         0.284950      0.637639     -0.376878
O      13.61486      1.97178      4.74463        -0.097742      0.172262      0.412287
O      13.42380     13.68963      4.58212         0.652732     -0.465696      0.578537
O       1.94934      1.85716      8.78275         0.003054      0.213433     -0.412114
O       2.00851     13.50400      8.67098        -0.308575      0.352439     -0.091132
O      13.60521      1.86341      8.78910         0.344660      0.216331     -0.813389
O      13.76750     13.47454      8.73772        -0.398303      0.021491     -0.079689
O       1.97513      5.83529      0.46216         0.013222     -0.003455     -0.003041
O       1.88492      5.77073     12.91066        -0.104579      0.178135      0.656061
O      13.59780      5.82373      0.44698        -0.063207     -0.167577     -0.492922
O      13.79600      5.79034     12.91655        -0.614995      0.093617     -0.249799
O       1.75583      5.72575      4.57112         0.324741      0.422847     -0.042990
O      13.61167      5.77468      4.62488         0.031421      0.148303      0.260523
O       2.02084      5.99153      8.75501         0.055473     -0.348232      0.195080
O      13.57657      5.86766      8.81224        -0.095937      0.172432      0.132416
O       2.08580      9.73100      0.31442        -0.536969      0.381174      0.237500
O       2.05597      9.74767     12.86955        -0.568459      0.200604      0.030903
O      13.54489      9.61747      0.47023         0.356278      0.118861     -0.445461
O      13.56710      9.65318     12.91369         0.295353      0.256397      0.133994
O       1.76818      9.71668      4.49156         0.358209      0.178387      1.029382
O      13.77310      9.55611      4.51705        -0.355359      0.734492      0.488967
O       2.11450      9.71856      8.66424        -0.370519     -0.119241      0.312487
O      13.53737      9.64535      8.70603         0.523856      0.540783      0.844691
O       5.71314      1.86600      0.31260        -0.038798      0.415072      0.727729
O       5.94448      1.77966     12.95406        -0.381123      0.017656     -0.525752
O       5.88518     13.63244      0.42405         0.203105      0.047910     -0.499158
O       5.73982     13.72578     12.87135        -0.012796     -0.195332      0.407315
O       5.94136      2.05868      4.51239        -0.267194     -0.027950     -0.114534
O       5.66508     13.66418      4.45547         0.500742     -0.568529      0.491391
O       6.05268      2.03715      8.90774        -0.418202     -0.338689     -0.239708
O       5.80476     13.71992      8.67219         0.011815     -0.195031     -0.013191
O       5.62985      5.94231      0.45881         0.283793     -0.387715     -1.244719
O       6.03546      5.90966     12.86675        -0.783402     -0.167754      0.059992
O       5.66435      5.70415      4.53488         0.739077      0.089159      0.528049
O       5.74697      5.61972      8.92338         0.364818     -0.251057     -0.434175
O       5.80992      9.80827      0.36891         0.073991     -0.163801     -0.314390
O       5.88235      9.81146     12.85648         0.208605      0.053749      0.372262
O       5.71120      9.80263      4.59437         0.389401     -0.112988     -0.380660
O       5.93318      9.63725      8.78916        -0.015046      0.154849     -0.802945
O       9.85656      2.02948      0.37476        -0.305679     -0.451910     -0.639655
O       9.88600      1.71529     12.94147        -0.162862      0.308577     -0.187596
O       9.65827     13.63787      0.41824         0.046486     -0.147324      0.483161
O       9.77461     13.69186     12.85644         0.415459     -0.076053      0.403767
O       9.60734      1.92331      4.59897         0.461844      0.051275     -0.085370
O       9.71434     13.84065      4.56233         0.375600     -0.668257     -0.337626
O       9.74231      2.01927      8.79956        -0.424981     -0.123876     -0.556938
O       9.67360     13.66919      8.65700        -0.021336     -0.341834     -0.491442
O       9.92254      5.75560      0.45443        -0.417710      0.291394     -0.794906
O       9.85545      5.97864     13.04381        -0.513548     -0.134783     -0.901198
O       9.50152      5.96302      4.48318         0.445964     -0.310712      0.218906
O       9.74453      5.71096      8.93194        -0.175481      0.093409     -0.522217
O       9.75999      9.73536      0.42123        -0.126977      0.211047     -1.388185
O       9.77254      9.82126     12.93476        -0.017329     -0.631564      1.101956
O       9.80068      9.94051      4.52837        -0.210062     -0.928579      0.244684
O       9.87348      9.78553      8.69481        -0.461630     -0.262550      0.208762
O       3.81182      1.78317      2.47284         0.844720      0.706492     -0.123556
O       3.80886      1.84068     14.87684         0.884387      0.227251      0.343098
O       3.89811     13.73441      2.35830        -0.881862      0.260626      0.203205
O       3.83823     13.56944     15.10515         0.525272      0.849319     -0.492937
O      15.55277      2.11961      2.53868        -0.677045     -0.768049     -0.230833
O       0.03674      1.93432     14.87011        -1.543567     -0.326747      0.302813
O      15.59366     13.71296      2.69479        -0.788642     -1.170856     -0.682013
O      15.60295     13.41572     14.80577        -0.842130      0.518576      0.661686
O       4.00842      1.87399      6.58286        -1.177434      0.546326      0.432540
O       3.89332     13.60432      6.57309        -0.154441     -0.143636      0.408676
O      15.60065      2.03367      6.82759        -0.526861     -0.882105     -0.383858
O      15.59631     13.70471      6.58178        -0.531059     -0.409685      0.090816
O       3.88416      2.00967     10.83268        -0.144273     -0.432909      0.147633
O       3.81538     13.59692     10.83787         0.260227      0.092756     -0.309300
O      15.52609      1.93728     11.01894         0.868857     -0.114809     -0.631643
O       0.01744     13.70382     10.83768         0.138313     -0.518558     -0.142603
O       3.90208      5.71578      2.52887        -1.489445      0.237576      0.333973
O       3.87384      5.91364     14.93933        -0.620793     -0.315610     -0.124929
O      15.57297      5.69764      2.38733         0.072685      0.341971      0.392567
O      15.52903      5.72057     14.96541         0.919440      0.963993      0.617192
O       3.84482      5.79608      6.68760        -0.081886     -0.778683      0.011894
O      15.54647      5.98304      6.86309         0.504111     -0.501390     -0.335792
O       3.90924      5.96899     11.01059         0.605837     -1.277081     -0.118929
O       0.04615      5.78068     10.77488        -1.002571      0.816491      0.450218
O       3.83334      9.81505      2.48766        -0.353798     -0.253508      0.118490
O       3.88520      9.79006     14.81545         0.432455     -0.358633      0.672860
O      15.59651      9.80952      2.35096         0.180908     -0.306627      0.154432
O      15.57733      9.78044     15.02147        -0.184165     -0.088356     -0.070084
O       3.90799      9.78047      6.51608        -1.170349      0.166576      0.583844
O      15.58711      9.63007      6.76600         0.298398      0.170519     -0.262592
O       4.01717      9.76661     10.86151        -1.207503     -0.346055     -0.237602
O       0.02310      9.66011     10.92823        -0.292423     -0.392396     -0.600519
O       7.77640      2.03317      2.29073        -0.721009     -0.288569      0.424817
O       7.69824      2.00012     15.02389         1.681191     -0.038310      0.210040
O       7.78369     13.47884      2.56219        -0.014566      0.656769     -0.088430
O       7.75883     13.57199     14.80560         0.197601      0.262425      0.562084
O       7.85219      1.77649      6.62066        -0.797950      0.761708      0.602359
O       7.81512     13.72186      6.41155        -0.388218     -0.274540      0.894806
O       7.85837      1.85989     11.05208         0.166959     -0.141655     -0.823898
O       7.74068     13.67840     10.76190         0.990253     -0.074354      0.232555
O       7.78492      5.87524      2.34962        -0.446339      0.245761      0.342971
O       7.73759      5.80031     15.12014         0.551651      0.316691     -0.018445
O       7.67772      5.83895      6.74820         1.150223      0.300004     -0.289092
O       7.83414      5.58363     11.04346         0.298979      0.657028     -0.694669
O       7.73963      9.80577      2.54115         0.286178     -0.042156     -0.104547
O       7.76530      9.78633     14.91298         0.759677     -0.130861      0.683746
O       7.79049      9.66501      6.57755         0.350473     -0.493649      0.453081
O       7.81676      9.79465     10.74837         2.137642      0.265882      0.450987
O      11.60120      1.87794      2.54454         1.283897      0.064392      0.209785
O      11.71198      1.88976     14.97920         0.758407     -0.001788     -0.028489
O      11.66543     13.63347      2.59764        -0.424899      0.186466     -0.449316
O      11.67233     13.67616     15.02203         0.125723      0.129996     -0.439031
O      11.65010      2.08708      6.75264         0.693881     -0.335476      0.073887
O      11.65146     13.66545      6.74054         0.250266     -0.646895      0.138068
O      11.69644      1.99207     10.78690         0.268336     -0.894642      0.417494
O      11.69994     13.55480     10.64576         0.170882     -0.175410      0.281599
O      11.57993      5.84058      2.57982         0.879515      0.136947      0.102536
O      11.70182      5.79525     15.00791         0.390885      0.046917      0.166358
O      11.64777      5.84992      6.69146        -0.454132     -0.274254     -0.010745
O      11.67917      5.77785     10.89639         0.209516      0.147697      0.240697
O      11.70133      9.60135      2.44240        -0.116335      0.595123      0.603758
O      11.68911      9.67578     15.03992        -0.121615     -0.049760      0.086791
O      11.69106      9.68004      6.65533        -0.125009      0.247914     -0.407221
O      11.73093      9.70558     10.90565        -0.555163      0.670913     -0.510935
O       1.89180      3.84768      2.52452         0.452764      0.398567      0.088033
O       1.89951      3.85337     14.98862         0.432462      0.827447     -0.251422
O       1.74974      0.02300      2.48010         0.394166      0.070710      0.109584
O       1.86847     15.56237     14.87110        -0.001153     -0.487614      0.162722
O      13.47358      3.90140      2.58522         0.009665     -0.372270     -0.097021
O      13.76044      3.82821     14.83491        -0.706907      0.077629      0.511327
O      13.67907     15.58672      2.53164        -0.183839      0.618502     -0.211512
O      13.70897     15.49643     15.05225        -0.148379      0.635185     -0.555751
O       1.86716      3.88692      6.71258         0.227574     -0.163716      0.016663
O       1.93895     15.56881      6.65085         0.093638      0.585748      0.142283
O      13.62438      3.98470      6.76780         0.254327     -1.245131      0.385116
O      13.54861     15.56170      6.74267         0.321468      0.649733      0.206956
O       1.92278      3.93388     10.80094         0.455683     -0.799729      0.249493
O       1.89228     15.56201     10.79030         0.185601      0.338813      0.253281
O      13.65716      3.84897     10.79961        -0.288931      0.616615      0.425696
O      13.72606     15.51596     10.75479        -0.566619      0.829021      0.198881
O       1.92329      7.80193      2.49220        -0.224778     -0.243330     -0.215482
O       1.98838      7.82004     15.00389        -0.877108     -0.516319     -0.194534
O      13.61823      7.71366      2.54999         0.397890     -0.144852     -0.133585
O      13.67161      7.74624     14.95391         0.093072      0.002456      0.232246
O       2.04385      7.78413      6.52556        -0.122097      0.294512      0.099159
O      13.59607      7.77088      6.73347         0.065571      0.249987      0.211775
O       2.01671      7.80359     10.89618        -0.162105      0.339335     -0.073180
O      13.57623      7.79465     10.90938         0.546180     -0.434202     -0.096034
O       1.98350     11.78656      2.49144        -0.564274     -1.007492     -0.597019
O       2.04940     11.69007     14.94120        -0.589896     -0.306277      0.493406
O      13.58604     11.62106      2.49061         0.071425      0.381198      0.240972
O      13.57129     11.74155     14.99834        -0.139384     -0.780492      0.163971
O       1.90974     11.69896      6.52744        -0.141421     -0.536480      0.494368
O      13.62739     11.62869      6.58533         0.113734      0.297318      0.033740
O       1.87389     11.59333     10.66629         0.078977      0.921238      0.549637
O      13.89967     11.63064     10.91930        -1.503610     -0.184410     -0.699205
O       5.81761      3.89861      2.43168        -0.296420     -1.003621      0.112794
O       5.68710      3.95288     14.89843         0.195855     -0.704011      0.365646
O       5.95248      0.01358      2.52796        -0.345718      0.117911     -0.119022
O       5.82839      0.03194     15.01938        -0.088752     -1.801022      0.049984
O       5.90125      3.85600      6.72209        -0.109179     -0.144509     -0.049563
O       5.80079     15.55344      6.43655         0.097725      0.133527      0.873617
O       5.90243      3.75464     11.13132        -0.371686      0.891034     -0.495839
O       5.82388     15.55901     10.80852        -0.265619      0.401715      0.417736
O       5.65159      7.79044      2.47403         0.568732      0.334523      0.234944
O       5.89610      7.76507     14.94872        -0.344121      1.198072      0.300160
O       5.67880      7.70002      6.65296         0.704307      0.516220      0.149078
O       5.98538      7.72858     10.82088         0.192025     -0.178971      0.307412
O       5.71427     11.66370      2.42299         0.190948      0.975036      0.400399
O       5.78225     11.69666     14.91667         0.210089      0.337345      0.305655
O       5.93743     11.63772      6.65890        -0.242019      1.087961      0.142324
O       5.86873     11.72620     10.62949         0.048300     -0.039427      0.873775
O       9.74772      3.84086      2.42625        -0.069286      0.881535      0.572124
O       9.68978      3.89750     15.04829         0.339159     -0.396130     -0.392795
O       9.64616      0.01977      2.52758        -0.052093     -1.170762     -0.262927
O       9.64950      0.06926     15.19908         0.492692     -0.800089     -1.195459
O       9.67742      3.93911      6.53677        -0.130988      0.295584      0.309914
O       9.81952      0.04520      6.81748         0.080353     -0.558845     -0.469722
O       9.83439      3.79877     10.96608        -0.410226      0.376945      0.208039
O       9.80817     15.52705     10.78931        -0.014792      0.243139     -0.153569
O       9.66101      7.91630      2.54740         0.075484     -1.066978     -0.013892
O       9.68693      7.72470     15.17257         0.162881      1.192552     -0.391726
O       9.79910      7.70555      6.73574        -0.716608      0.486461     -0.440412
O       9.64145      7.79463     10.81995         0.606969      0.076291     -0.128604
O       9.79097     11.68140      2.47178         0.050394      0.058918      0.355092
O       9.77730     11.71652     14.94020         0.031072     -0.124364      0.380484
O       9.63262     11.63874      6.62132         0.476633      1.051236      0.083316
O       9.76576     11.72252     10.74482        -0.057388     -0.828948      0.201156
