  # total energy = -7882.74939312 
CRSYTAL
PRIMVEC
    15.6080000000000005    0.0000000000000000    0.0000000000000000
     0.0000000000000000   15.6080000000000005    0.0000000000000000
     0.0000000000000000    0.0000000000000000   16.6239999999999988
PRESSURE
-0.635846 -0.737066 -0.359884 0.172613 -0.213943 -0.074712
PRIMCOORD
320 1
Pb       3.78970      3.82141      4.12553         0.482633     -0.338590     -0.150844
Pb       3.81161      3.80518     16.50616         0.348760      0.541149      1.074633
Pb       3.90894     15.47878      4.16568         0.133259      0.330096     -0.325233
Pb       3.99677     15.60214     16.56082        -0.504636     -0.373424      0.792693
Pb       0.03150      3.94602      4.12945        -0.357805     -0.369964     -0.254559
Pb       0.03419      3.88995      0.00040        -0.477766     -0.021102      0.111567
Pb       0.03510     15.52735      4.22979        -0.161971     -0.087409     -0.618008
Pb      15.60668      0.00114     16.57412        -0.341472     -0.176495      0.054539
Pb       4.02970      3.92461      8.19973        -0.549646     -0.122548      0.828604
Pb       3.87849     15.41719      8.21762        -0.210704      0.959982      0.617037
Pb       0.01003      3.92195      8.28949        -0.371453     -0.059910     -0.527345
Pb      15.51842     15.52961      8.34147         0.035531      0.331691     -0.123605
Pb       3.89226      3.78056     12.41277        -0.263906      0.257743     -0.068351
Pb       3.96983      0.11377     12.49829        -0.424356     -0.198995     -0.239249
Pb      15.58540      4.02376     12.52318         0.159717     -0.546273      0.296205
Pb       0.03479     15.48483     12.36980        -0.055937      0.843191      1.167685
Pb       3.96604      7.74132      4.00960        -0.388745      0.231834      0.460955
Pb       3.89956      7.83499     16.62392         0.461476     -0.186719     -0.200553
Pb      15.44571      7.73721      4.11744         0.279494      0.425086      0.148230
Pb      15.59456      7.73680     16.60653        -0.259781     -0.207504     -0.579235
Pb       3.77955      7.78641      8.30554        -0.193593      0.499814      0.083799
Pb      15.59088      7.72978      8.25408         0.034013      0.895634      0.045121
Pb       3.85730      7.74180     12.37036         0.185821      0.410698      0.192217
Pb      15.59042      7.74962     12.37077        -0.225976      0.268647      0.399773
Pb       3.91138     11.64452      4.17508         0.035106     -0.045801     -0.341894
Pb       3.84774     11.72610      0.06374         0.366551     -0.209568     -0.224129
Pb       0.00045     11.61738      4.13585         0.100886      0.034912     -0.181270
Pb      15.59248     11.57386     16.53953        -0.180197      0.389084     -0.038342
Pb       3.92005     11.68041      8.43004        -0.596594     -0.055196     -0.802518
Pb       0.07418     11.74780      8.29252        -0.283215     -0.614754      0.208804
Pb       3.78901     11.65667     12.47936         0.128943     -0.081554      0.126309
Pb      15.47412     11.83555     12.51546        -0.148296     -0.436284     -0.286159
Pb       7.84196      3.94998      4.08684        -0.036368     -0.570078      0.219999
Pb       7.82703      3.82251      0.01503        -0.288855      0.462191      0.004155
Pb       7.87815      0.03007      4.21106        -0.366595      0.192111     -0.515819
Pb       7.78642     15.54655     16.52551         0.221583      0.403615      0.263723
Pb       7.91397      3.82138      8.20874        -0.727507     -0.018875      0.301894
Pb       7.71199      0.01886      8.16526         0.425031      0.119500      0.677844
Pb       7.86188      3.88970     12.54451        -0.523822      0.021295     -0.554101
Pb       7.76126     15.58174     12.33220        -0.180770      0.138762      0.102529
Pb       7.92271      7.77573      4.16472        -0.365022      0.202828     -0.072254
Pb       7.67818      7.58518      0.06076        -0.016797      0.099372     -0.221537
Pb       7.73158      7.72605      8.24972         0.396858      0.336936      0.472615
Pb       7.63727      7.94532     12.49652         0.265941     -0.411825     -0.572708
Pb       7.80901     11.63398      4.11961        -0.266637      0.172068      0.226632
Pb       7.82857     11.72677     16.62087        -0.392227     -0.340741     -0.138741
Pb       7.94703     11.63939      8.41136        -0.295626      0.151666     -0.151512
Pb       7.77603     11.83479     12.45684        -0.072756     -0.453588     -0.154733
Pb      11.63123      3.82919      4.00292         0.470389      0.034832      0.544529
Pb      11.63748      3.77510      0.04789        -0.045593      0.776135     -0.486725
Pb      11.79176     15.57335      4.13487         0.106653      0.005040     -0.234904
Pb      11.75804     15.59564     16.53930        -0.051132      0.053031     -0.153006
Pb      11.66546      3.82460      8.26382         0.586936      0.009052     -0.277969
Pb      11.82291     15.56956      8.37816        -0.195218      0.257005     -0.569370
Pb      11.60317      3.93320     12.32591         0.255812     -0.186607      0.126788
Pb      11.53628      0.08724     12.48902         0.355376      0.183201     -0.261214
Pb      11.67189      8.05910      4.24473         0.116254     -0.133326     -0.038005
Pb      11.80272      7.75613     16.59667        -0.503284     -0.057654     -0.372331
Pb      11.71193      7.66324      8.38879        -0.186849      0.336417     -0.348887
Pb      11.77154      7.81698     12.45404        -0.106068     -0.476514     -0.898058
Pb      11.77661     11.85778      4.07495        -0.279099     -0.342454      0.721332
Pb      11.51703     11.63310      0.02178         0.709942      0.002887     -0.503113
Pb      11.57750     11.67632      8.33968         0.109854     -0.211545     -0.175591
Pb      11.68432     11.57257     12.52897        -0.107725      0.505563     -0.563811
Ti       1.87691      1.84974      2.18921         0.540650     -0.204923      0.599697
Ti       1.87640      1.84452     14.77192        -0.848622      0.351978     -1.083610
Ti       1.97803     13.56007      2.25673        -0.213259     -0.121321     -0.680110
Ti       1.94560     13.59322     14.78482        -0.304301      0.442456     -0.518822
Ti      13.63633      1.96064      2.10005         0.319733     -0.265531      1.018912
Ti      13.57692      2.06386     14.69598         0.510442     -0.879608     -0.074270
Ti      13.69599     13.60930      2.16366         0.014824      0.820692      0.649817
Ti      13.59908     13.68638     14.68609         0.298444      0.166685      0.072496
Ti       1.92450      1.98669      6.42180        -0.432823     -0.142807     -0.452531
Ti       1.89482     13.76093      6.42972         0.146345     -1.359427     -0.465656
Ti      13.69047      1.95265      6.26088        -0.979943      0.480602     -0.215369
Ti      13.62679     13.62577      6.43559        -0.119595      0.081795     -0.901238
Ti       1.85000      2.00001     10.43148         0.701582     -0.417498     -0.763972
Ti       1.90686     13.67918     10.61183        -0.296802      0.175980     -1.051861
Ti      13.70739      1.88641     10.62138        -0.846480      0.796483      0.226023
Ti      13.59365     13.71355     10.57598        -0.075131     -1.739512     -0.007550
Ti       1.92090      5.75798      2.19962         0.486511      0.786035     -0.853985
Ti       1.95045      5.83087     14.75248        -0.736839     -0.943133     -0.097931
Ti      13.64511      5.88385      2.10909        -0.475476     -0.821731     -0.706465
Ti      13.58514      5.89257     14.64033         0.159818     -0.451711      1.043486
Ti       2.00076      5.88262      6.34723        -1.992399      0.583218     -0.212297
Ti      13.63065      5.92705      6.31813        -0.576058     -0.896226      0.676668
Ti       1.91342      5.82943     10.50037         0.969760     -0.125836     -0.453775
Ti      13.69094      5.71650     10.48182        -1.323149      1.251735      0.644601
Ti       1.95632      9.61255      2.16325        -0.216902      1.237079      0.868145
Ti       1.94477      9.69250     14.66171         0.183097      0.643298     -0.183604
Ti      13.58522      9.80194      2.10387         0.667702     -0.087249     -0.289927
Ti      13.62470      9.81140     14.54928        -0.494242     -0.163950      1.184358
Ti       1.88419      9.80310      6.29443        -0.324277     -0.240047      1.269901
Ti      13.57551      9.79364      6.46097         0.291973      0.098602     -0.263475
Ti       1.80604      9.77379     10.62414         0.647617     -0.548111     -1.024491
Ti      13.60012      9.72258     10.48268        -0.063633      0.731667      0.169559
Ti       5.81021      1.91830      2.26918         0.028633     -0.386622      0.471249
Ti       5.74053      1.98044     14.71793         1.072628      0.712913     -1.153600
Ti       5.89093     13.64218      2.17578        -0.687394      0.153856      0.208445
Ti       5.87733     13.71545     14.66271        -0.426962     -1.073680      0.139500
Ti       5.79346      1.96994      6.39664        -0.036371     -0.305893     -1.574592
Ti       5.89495     13.64253      6.41525        -0.537341     -0.450550      0.405345
Ti       5.80858      1.94758     10.49531        -0.122782      0.040710     -0.057993
Ti       5.75103     13.59842     10.50639         0.338602      0.525754      0.656885
Ti       5.87653      5.73805      2.34097         0.003643      0.171458     -2.261175
Ti       5.75289      5.87595     14.56170         0.546118     -0.138236      1.572345
Ti       5.84731      5.90241      6.44454        -0.027874     -0.307989     -0.953889
Ti       5.85979      5.79552     10.57790         0.293147      0.165357     -1.103475
Ti       5.82235      9.67452      2.17693        -0.258644      0.917551     -0.234789
Ti       5.88740      9.80072     14.70991        -0.458903     -0.033594      1.361391
Ti       5.71457      9.80946      6.47624         0.581640      0.405563     -1.390133
Ti       5.77252      9.72589     10.47040         0.090187     -0.180245      1.120089
Ti       9.73287      1.92508      2.16037        -0.323090     -0.127018      1.082971
Ti       9.64617      1.98928     14.62363         0.906479     -0.073142      0.926931
Ti       9.69283     13.69602      2.13566         0.491100     -0.310946      1.619366
Ti       9.71302     13.61890     14.65357         0.595454      0.367277      0.274615
Ti       9.77682      1.90277      6.26790         0.568913     -0.319198     -0.388494
Ti       9.75502     13.68740      6.38086         0.322283     -0.652575     -0.550080
Ti       9.62751      1.95732     10.41778         1.125119     -0.057948      0.380746
Ti       9.74097     13.68749     10.54492         0.335060     -0.440364     -0.437688
Ti       9.85077      5.88696      2.23731        -0.553239     -0.062834      0.043463
Ti       9.64516      5.92455     14.54227         0.697070     -0.703332      1.245839
Ti       9.69282      5.79582      6.35821         1.327981      0.705015     -0.134924
Ti       9.69339      5.79261     10.41313         0.208123      1.481946      0.349007
Ti       9.70255      9.83673      2.27548         0.072547     -0.524410      0.524374
Ti       9.70899      9.64757     14.68433         0.223075      0.573473      1.332154
Ti       9.62280      9.72952      6.41176         1.343665      0.126074     -0.196661
Ti       9.66691      9.74794     10.62078         0.234823     -0.464208     -1.385013
O       1.93722      1.85131      0.43765         0.114733      0.202162     -0.779983
O       1.97346      1.82604     12.98385         0.080854      0.367703     -0.018458
O       1.98759     13.44707      0.42970        -0.015104      0.211736      0.101964
O       1.98331     13.62908     12.99054        -0.457286      0.244775     -0.563510
O      13.57273      1.88325      0.33570        -0.142663     -0.163028     -0.135581
O      13.52922      1.97161     12.92051         0.002391      0.083469     -0.594128
O      13.55839     13.63677      0.42717         0.302373     -0.052509     -0.752848
O      13.72897     13.70616     12.90235        -0.383891     -0.327553     -0.097597
O       1.84728      1.91978      4.60631        -0.016690      0.380783      0.036612
O       1.88028     13.74915      4.65341         0.055201     -0.019436     -0.435057
O      13.52403      2.04942      4.45544         0.635379     -0.359820      0.515711
O      13.66434     13.69793      4.61228        -0.063237     -0.325992      0.642958
O       1.84281      2.10528      8.60930        -0.183284     -0.268229      1.329338
O       1.81769     13.73317      8.80314         0.241918     -0.590414      0.078674
O      13.65700      1.89207      8.88041         0.000577     -0.032596     -0.575286
O      13.69073     13.81413      8.77979        -0.355340     -0.236875     -0.460764
O       1.97047      5.76073      0.40524        -0.282836      0.316119      0.439353
O       1.96117      5.56469     12.96691        -0.141443      0.960924      0.155088
O      13.60477      5.88505      0.27265         0.146356      0.658231      1.712507
O      13.61985      5.83626     12.85673        -0.021859     -0.019834     -0.196889
O       1.66155      6.04111      4.56816         0.942899     -0.727525     -0.000205
O      13.61370      5.80358      4.54387         0.386908      0.177201     -0.063073
O       1.89603      5.87999      8.69747        -0.105241      0.017122      0.747593
O      13.69159      5.67146      8.73873        -0.183215      0.614761     -0.584290
O       1.87341      9.82337      0.37719         0.215820     -0.130284     -0.134966
O       1.92794      9.60980     12.90249         0.232099      0.354892     -0.264397
O      13.52350      9.86798      0.29659         0.601120     -0.511844      1.231291
O      13.37853      9.89040     12.77661         0.351643     -0.743053     -0.160790
O       1.90216      9.73879      4.53356        -0.026590     -0.160210      0.055272
O      13.70822      9.84768      4.65854        -0.400415     -0.500225     -0.120343
O       1.93675      9.77726      8.83018        -0.089385     -0.192010      0.568379
O      13.62293      9.73111      8.73382        -0.285110     -0.016188     -0.790875
O       5.83476      2.06473      0.49443         0.160729     -0.571212     -0.971762
O       5.81940      1.91451     12.87815        -0.478542     -0.025039      0.659774
O       5.90200     13.84345      0.41094         0.018562     -0.337302     -0.308430
O       5.85002     13.67674     12.87903         0.095809      0.066442     -0.131438
O       5.78306      1.90720      4.57497        -0.217113      0.303544      1.272618
O       5.69306     13.63934      4.68352         0.524181     -0.162935     -0.945711
O       5.77392      1.95554      8.72068         0.082742      0.113250     -0.164981
O       5.61630     13.68089      8.75623         0.288843      0.036013     -0.083890
O       6.01298      5.80982      0.42284        -0.282381      0.038524      1.682952
O       5.81061      5.84417     12.81918        -0.271181     -0.040792     -0.797058
O       5.77557      5.76092      4.66001         0.017412      0.556910     -0.214172
O       5.96114      5.77899      8.72845        -0.389218      0.275057      0.049126
O       5.80335      9.59439      0.39152         0.145169      0.115440      0.169408
O       5.77201      9.77476     12.97595         0.517048     -0.062373     -0.917846
O       5.75157      9.90850      4.63659         0.134752     -0.338992      0.862588
O       5.80987      9.77244      8.71355        -0.160545      0.064295     -0.044235
O       9.70199      2.00967      0.39045        -0.221030     -0.104327     -0.107495
O       9.67300      2.06841     12.83043         0.067608     -0.299778      0.298377
O       9.62519     13.50395      0.38639         0.312911      0.616933     -0.299470
O       9.63806     13.81061     12.88706         0.218375     -0.301138     -0.414518
O       9.76064      1.96680      4.42077        -0.156800     -0.287384      1.733880
O       9.73472     13.61922      4.57910        -0.111669      0.115588      0.740835
O       9.63560      1.94284      8.65665        -0.063144     -0.006888     -0.534291
O       9.90754     13.61119      8.75234        -0.338053      0.086599      0.422319
O       9.73853      5.93274      0.48529        -0.191271     -0.102069     -0.051778
O       9.84040      5.88635     12.79108        -0.549607     -0.142482      0.043455
O       9.83550      5.66484      4.57620        -0.158512      0.631194      0.202446
O       9.80249      5.83562      8.59040        -0.814725     -0.275814      0.613764
O       9.79564      9.83375      0.54619        -0.266269     -0.040457     -0.890964
O       9.66774      9.82542     12.95679         0.365697     -0.409747     -1.588252
O       9.68671      9.71971      4.57490        -0.075649      0.121928      0.177681
O       9.64688      9.99106      8.79887         0.088521     -0.521301      0.289111
O       3.88718      2.05794      2.57218        -0.454421     -0.232115     -0.084526
O       3.84185      1.88200     15.05660         0.820086      0.092808     -0.344828
O       3.85376     13.65988      2.54681         0.691210     -0.191669      0.103874
O       4.01661     13.59460     15.01541        -0.916419      0.365987      0.138755
O      15.58313      1.99302      2.39200        -0.025102     -0.590085      0.420884
O      15.54251      1.80243     14.99482         0.620475      0.334609      0.140646
O       0.03639     13.56590      2.57812        -0.422842      0.524261     -0.175924
O      15.55575     13.77545     15.06382         0.572482     -0.884879     -0.214357
O       3.77758      1.96739      6.73069         1.087151      0.115877     -0.281196
O       3.78394     13.61693      6.76423         0.364804      0.177978     -0.089088
O      15.50321      1.91847      6.67199         0.631996      0.479578     -0.152735
O      15.57019     13.54195      6.71768        -0.231930      0.799896      0.075252
O       3.81993      1.88158     10.79711        -0.242145      0.522482      0.197548
O       3.76408     13.66365     10.93596         1.012993     -0.203229     -0.359930
O       0.00575      2.03170     10.91481        -0.651812     -0.360788     -0.106768
O      15.49303     13.63748     10.93761         1.611221     -0.286843     -0.059244
O       3.97659      5.68512      2.53504        -0.804824      0.393507      0.207552
O       3.82599      5.73443     15.08071         0.446762      0.605269     -0.542929
O      15.58188      5.89433      2.43861        -0.078217      0.228178     -0.043093
O      15.57880      5.73735     15.12036         0.729038      1.094146     -0.585348
O       3.80497      5.95338      6.67838         1.383314     -0.166311      0.023480
O      15.52696      5.98346      6.75166         0.164112     -0.914376     -0.588047
O       3.94540      5.77876     10.69923        -1.632971     -0.034655      0.472481
O      15.57405      5.86914     10.89080         0.350668     -0.038232     -0.307154
O       3.91988      9.75686      2.56349        -0.634426      0.018065     -0.202752
O       3.91417      9.75383     14.98448        -0.783721      0.169085      0.174060
O       0.04364      9.68964      2.46241        -0.562533     -0.175523     -0.124513
O      15.47345      9.81862     14.78361         1.622878     -0.269763      0.597105
O       3.83054      9.76530      6.74207         0.195551      0.203217     -0.040266
O      15.51587      9.75630      6.82606         0.545540      0.065354     -0.582850
O       3.88054      9.67386     10.91032         0.020264      0.550353     -0.161921
O      15.55421      9.57812     10.92229         0.155067      0.465715     -0.151277
O       7.73437      1.83632      2.63449         0.980298      0.140742     -0.489852
O       7.82457      2.02826     14.89639        -1.003885     -0.099799      0.421420
O       7.77603     13.59134      2.46444         0.178464      0.419417      0.356051
O       7.79046     13.63428     14.93758        -0.121416      0.468723      0.373309
O       7.68879      1.87458      6.61196         0.817828      0.272887      0.058225
O       7.77610     13.74590      6.78761        -0.033981     -0.544704     -0.455146
O       7.73219      1.95602     10.77846        -0.162819     -0.086296      0.180815
O       7.83124     13.67695     10.69551        -1.548380      0.313855      0.382763
O       7.83616      5.95450      2.62281        -0.305385     -0.364493      0.069004
O       7.71598      5.95363     14.81428         0.345588     -0.454197     -0.000495
O       7.72010      5.83809      6.52606         0.966846     -0.015727      0.505478
O       7.76467      5.90097     10.83935         0.306928     -0.406110      0.147140
O       7.70672      9.69771      2.62055         1.035180      0.217279     -0.271213
O       7.86018      9.65935     15.03276        -1.172550      0.242578      0.044860
O       7.81710      9.78519      6.80337        -1.109224      0.059338     -0.268328
O       7.74911      9.78325     10.90745        -1.007366     -0.125074      0.088680
O      11.63845      1.90122      2.44371         0.418587      0.377489     -0.332368
O      11.63210      2.02652     15.01555         0.028812     -0.013154     -0.162712
O      11.72744     13.55978      2.56053        -0.562156      0.157368     -0.545285
O      11.66103     13.59522     14.97385        -0.194929      0.284051     -0.106379
O      11.64815      1.86276      6.62748        -0.571658      0.092853      0.091209
O      11.71164     13.70257      6.71534        -0.634983     -0.082874     -0.025087
O      11.58196      2.00111     10.78503         0.585542     -0.378639      0.261429
O      11.73315     13.60449     10.91773        -0.749041      0.346805      0.035389
O      11.75174      5.68221      2.44694        -0.276413      0.530162     -0.100133
O      11.71236      5.86041     15.00079        -0.298005      0.155308     -0.370019
O      11.69293      5.86358      6.76154        -0.264812     -0.096891     -0.370585
O      11.63407      5.83915     10.77323         0.239990      0.124730     -0.151563
O      11.73223      9.89717      2.51674        -0.576366     -0.487635      0.254087
O      11.67009      9.72712     15.06291        -0.492322     -0.029455     -0.506918
O      11.58765      9.61861      6.68916         0.405769      0.438565      0.204982
O      11.58145      9.72247     10.72284         0.418709      0.490055      0.728614
O       1.89500      3.92436      2.50299        -0.048199     -0.561424      0.537304
O       1.87158      3.83692     15.13958         0.259965     -0.302524     -0.619065
O       2.03870     15.57769      2.44943        -0.651124      0.178846      0.382759
O       1.97385     15.54361     15.08650         0.212951     -0.070691      0.187112
O      13.72232      3.86963      2.26623        -0.348372      0.368268      0.503999
O      13.79451      3.89994     15.08474        -0.904239     -0.093122     -0.652745
O      13.57805     15.53607      2.55549         0.479952      0.548303     -0.363482
O      13.59811      0.00719     14.96423        -0.646876     -0.267896      0.327172
O       1.90337      3.98688      6.59698        -0.258718     -0.084496     -0.118461
O       1.81263      0.05711      6.63532         0.150205     -0.621832      0.436461
O      13.50692      3.81218      6.74082         0.651481      0.502560     -0.372311
O      13.59035      0.02334      6.67002         0.380061     -0.277060      0.100209
O       1.74945      3.90983     10.83417         0.894474     -0.038275     -0.203855
O       1.77528     15.60134     10.67911         0.202173      0.365885      0.559744
O      13.55239      3.91660     10.84239         0.542422     -0.741390      0.179443
O      13.73061     15.56701     10.80848        -0.495564      1.258861      0.543545
O       2.16032      7.74188      2.35446        -0.488014      0.105569      0.133149
O       1.90865      7.83794     15.07737        -0.158784     -1.056616     -0.189672
O      13.57267      7.81421      2.49947        -0.091390      0.139114     -0.292187
O      13.72769      7.82362     14.84651        -0.386395     -0.208575      0.297358
O       1.90230      7.89099      6.70912         0.020318     -0.616180      0.205748
O      13.58096      7.81546      6.63436         0.041165     -0.494039      0.131732
O       1.99399      7.74489     10.97649        -0.512566     -0.829188     -0.586206
O      13.58194      7.83412     10.74826        -0.150220     -1.196554      0.643309
O       1.97697     11.66259      2.63405        -0.006958     -0.047297     -0.296280
O       1.90841     11.69961     14.88385         0.044671     -0.502540      0.492970
O      13.70006     11.67083      2.50559         0.188598     -0.057649      0.029186
O      13.62703     11.67726     14.88090        -0.086966      0.917605      0.042866
O       1.86948     11.69735      6.70912         0.193027     -0.009745     -0.061288
O      13.53529     11.71640      6.71454         0.017217      0.074816      0.219526
O       1.89595     11.63666     10.88677        -0.123255      0.832909      0.245865
O      13.75127     11.65060     10.78169        -0.526633      0.554106      0.310358
O       5.93142      3.84946      2.57117         0.234455      0.825575      0.216074
O       5.77694      3.86976     14.88463         0.086713      0.266115      0.123722
O       5.80612     15.57301      2.59860        -0.125489     -0.011536     -0.068773
O       5.92746      0.10538     15.04583        -0.254434     -1.170043     -0.332810
O       5.84710      3.92659      6.73312        -0.410720     -0.263745     -0.231894
O       5.78444     15.59986      6.67332        -0.364548      0.119332      0.301475
O       5.80414      3.88330     10.89298         0.109459     -0.663768     -0.098409
O       5.74791     15.59167     10.87121         0.321597     -0.192504     -0.258428
O       5.74054      7.82037      2.53934         0.466595     -1.161515      0.114812
O       5.75411      7.74527     14.98346         0.022352      0.139299     -0.175448
O       5.87996      7.91702      6.79202        -0.425195     -1.414413     -0.467527
O       5.73387      7.78398     10.84107         0.623907      0.332237      0.029508
O       5.75326     11.71682      2.28820         0.311892     -0.001317      0.603171
O       5.93589     11.70989     15.10989        -0.093037      0.088572     -0.386727
O       5.83025     11.75465      6.77259        -0.192976     -0.364662      0.172890
O       5.80246     11.68408     10.80225        -0.274987      0.614338      0.041519
O       9.67878      3.87066      2.48459        -0.078572      0.008647     -0.287723
O       9.65025      4.02149     15.09033         0.233009     -0.524079     -0.753100
O       9.81202     15.54739      2.53067        -0.540783      0.076813     -0.440390
O       9.75095      0.02568     15.03384        -0.087779      0.065837     -0.422549
O       9.71113      3.81712      6.66289        -0.135712      0.355242     -0.216699
O       9.66292     15.57244      6.62317        -0.014013      0.721204      0.006661
O       9.65032      3.91318     10.73748        -0.210757     -0.033703      0.089725
O       9.71551      0.05505     10.79168         0.080145     -0.525761      0.248451
O       9.80267      7.79445      2.57970         0.222377      0.550681      0.329162
O       9.67123      7.77197     15.02083         0.676875      0.010001     -0.265003
O       9.63062      7.76846      6.60551        -0.041125     -0.428741      0.078331
O       9.61684      7.80364     10.66403         0.300268      0.274954      0.476371
O       9.64687     11.73787      2.61430         0.283715     -0.542784     -0.373166
O       9.67329     11.72613     14.99143         0.180380     -0.425054     -0.133903
O       9.69207     11.70841      6.73830         0.181218      0.333808     -0.286335
O       9.56125     11.76881     10.95436         0.952695     -0.086623     -0.181109
