  # total energy = -7878.08903578 
CRSYTAL
PRIMVEC
    15.6080000000000005    0.0000000000000000    0.0000000000000000
     0.0000000000000000   15.6080000000000005    0.0000000000000000
     0.0000000000000000    0.0000000000000000   16.6239999999999988
PRESSURE
-0.57785 -0.50139 -0.876933 -0.348939 0.401098 -0.057962
PRIMCOORD
320 1
Pb       4.01727      3.90897      4.11057        -0.081891      0.036936      0.444338
Pb       4.09129      4.04753      0.15830        -0.161444     -0.185560     -0.498882
Pb       3.89672      0.03591      3.96773        -0.322999     -0.396809      0.480924
Pb       3.76925     15.57353     16.59112         0.323481     -0.193372     -0.000303
Pb       0.09037      3.82546      4.19431        -0.583662      0.305800     -0.803057
Pb      15.53008      3.79379     16.59651        -0.108349     -0.220926     -0.141382
Pb      15.56416     15.50611      4.01211        -0.121860     -0.043375     -0.629356
Pb      15.53475     15.57078     16.56208         0.304213     -0.069843      0.276232
Pb       3.64075      3.72671      8.33345         0.678105      0.510466     -0.510542
Pb       3.87049      0.05762      8.22189        -0.035520     -0.308026     -0.248754
Pb      15.48798      3.79374      8.29736         0.033921      0.068942     -0.040855
Pb       0.07114     15.57322      8.22312        -0.646483     -0.173734     -0.285387
Pb       3.83731      3.91186     12.46290        -0.545718     -0.088326     -0.057695
Pb       3.83358     15.43711     12.40191         0.015791     -0.191835      0.461678
Pb       0.03396      3.89103     12.48954        -0.007533      0.223793      0.180906
Pb       0.01541      0.27600     12.68955         0.053254     -0.087592     -0.276827
Pb       3.79187      7.89581      4.22395         0.365572     -0.141639     -0.425981
Pb       3.83712      7.74333     16.56114        -0.042017      0.687202      0.419969
Pb       0.15958      7.90104      4.25733        -0.675623     -0.045872     -0.332433
Pb       0.02854      7.74724     16.59868        -0.424637     -0.062969     -0.634833
Pb       3.94130      7.66276      8.23921         0.042201      0.598912     -0.328391
Pb      15.30710      7.72240      8.63914         0.101817      0.255547     -0.464256
Pb       3.92872      7.85501     12.41242         0.018959      0.320498     -0.143351
Pb      15.54531      7.96792     12.61001        -0.358923     -0.615416     -0.643527
Pb       3.81380     11.69306      4.04718        -0.065746     -0.091674     -0.373097
Pb       3.87040     11.68334     16.49074         0.106712     -0.154658      0.431273
Pb      15.55450     11.67307      4.03565        -0.046250     -0.081249     -0.237068
Pb      15.54854     11.83106     16.57104        -0.310753     -0.119937     -0.297995
Pb       3.83181     11.69943      8.08520         0.089635      0.023818      1.174260
Pb      15.59472     11.61150      8.28237        -0.191257      0.144643     -0.082524
Pb       4.00634     11.63816     12.29725        -0.441311      0.278155      0.269400
Pb       0.21009     11.59757     12.35913        -0.200992     -0.201937      0.571321
Pb       7.81745      3.66491      4.20031        -0.240191      0.774802     -0.373891
Pb       7.81352      3.99940      0.05220        -0.128112      0.246745     -0.374192
Pb       7.72029     15.44400      4.03175         0.118617      0.162965      0.345252
Pb       7.87037      0.18749      0.10384        -0.426497     -0.612242     -0.630634
Pb       7.58112      3.93069      8.38386         0.992882     -0.352646     -0.036931
Pb       7.90017     15.55808      8.28839        -0.028247      0.215959      0.107464
Pb       7.69602      3.71725     12.43051         0.685843      0.036083     -0.130330
Pb       7.64460     15.54811     12.54773         0.360955     -0.158833     -0.476435
Pb       7.73554      7.84637      4.17318         0.194812      0.060263     -0.034980
Pb       7.70190      7.94710     16.57665         0.439755     -0.183670      0.280160
Pb       7.83832      7.72949      8.22359        -0.049709      0.205851     -0.182478
Pb       7.78120      7.59908     12.42037        -0.086953      0.648647     -0.220714
Pb       7.97193     11.73527      4.29334        -0.267345     -0.372207     -0.278317
Pb       7.60542     11.73384     16.58774         0.438252      0.548926      0.209190
Pb       7.66369     11.75715      8.14495         0.795401     -0.382522      0.594928
Pb       7.71186     11.48856     12.39272        -0.013073      1.221296      0.032625
Pb      11.87385      3.84272      4.40709        -0.555527      0.082567     -0.657650
Pb      11.80529      4.08576      0.20131        -0.092235     -0.286258     -0.602126
Pb      11.55468     15.43687      4.17883         0.334429      0.097501     -0.121653
Pb      11.57822     15.49722      0.03954        -0.332698     -0.020691     -0.266206
Pb      11.74135      4.15909      8.47503         0.114789     -0.890470     -0.317774
Pb      11.63711      0.16918      8.30804         0.661134     -0.143212     -0.304009
Pb      11.82001      3.81737     12.64827         0.054022      0.238371     -0.831063
Pb      11.73234     15.58255     12.44055        -0.028916      0.185253     -0.368312
Pb      11.77166      7.60332      4.13407        -0.347621      0.515320      0.020291
Pb      11.47165      7.80136      0.02606         0.299214      0.379003     -0.009037
Pb      11.57674      7.90006      8.31130         0.416160      0.075505     -0.041461
Pb      11.43422      7.99169     12.69688         0.931564     -0.420570     -0.829534
Pb      11.75237     11.28200      4.26139         0.247479      0.380448     -0.095569
Pb      11.75174     11.75685     16.51747        -0.327448     -0.233296     -0.148915
Pb      11.98590     11.97064      8.52544        -0.313060      0.075203     -0.350076
Pb      11.56399     11.90920     12.38170         0.675944     -0.945659      0.762775
Ti       1.89490      1.92717      2.12331        -0.745609     -0.717134     -0.872370
Ti       1.98169      1.87189     14.86520        -0.013553      0.566778     -1.115682
Ti       1.89843     13.63970      2.13067        -0.538376     -0.506644     -0.316661
Ti       1.97456     13.52305     14.76808        -0.626775      0.892170     -1.594101
Ti      13.49132      1.90307      2.06459         1.480566     -0.168091      1.173964
Ti      13.44157      1.89136     14.81386         0.638930      0.848880     -0.676800
Ti      13.49939     13.53817      2.14461         1.159846      0.618760      0.308439
Ti      13.58087     13.74249     14.59574         0.833372     -2.664247      0.234088
Ti       1.89784      2.06812      6.11966         0.434084     -1.721719      0.570924
Ti       1.94871     13.71344      6.27597        -0.615552     -0.233144     -0.861170
Ti      13.70918      1.86513      6.19533        -1.516847     -0.247938      1.777989
Ti      13.66195     13.67266      6.23572        -0.334461     -0.400144      0.947277
Ti       1.94712      1.90323     10.51512        -0.480384      0.364862      1.089096
Ti       1.88615     13.65769     10.51210         0.956172     -0.977215      0.410697
Ti      13.64450      1.86100     10.48712         0.232070     -0.045696      0.086978
Ti      13.84731     13.58557     10.67216        -1.492795      0.800556     -1.189361
Ti       1.97798      5.72852      2.20247         0.106088      0.959660     -0.334073
Ti       1.96443      5.74207     14.84671        -0.962557     -0.261066     -0.880360
Ti      13.74269      5.85147      2.16207        -0.693381     -0.459495      0.930878
Ti      13.63070      5.86058     14.62154         0.198451      0.099380     -0.818901
Ti       1.95652      5.90561      6.27834         0.210350      0.145399      1.106437
Ti      13.73796      5.74591      6.34474         0.244148      0.911516     -0.000698
Ti       2.14176      5.82950     10.32603        -2.053247     -0.008958      1.164018
Ti      13.76326      5.73024     10.57117        -0.443847      1.088152      2.412578
Ti       1.85429      9.62762      2.04228         0.786807      1.043746      0.763307
Ti       1.89697      9.69945     14.64154         0.576638      0.019863     -0.188109
Ti      13.65961      9.62979      2.02443        -0.911432      0.480314      0.901727
Ti      13.56580      9.77959     14.52859         0.910132      0.582082     -0.029027
Ti       1.91181      9.80644      6.35358        -0.826907     -0.532800      0.078492
Ti      13.63197      9.68163      6.46796         0.284562     -0.029249     -0.469017
Ti       1.98677      9.60469     10.45158        -0.048548      0.730296      1.234759
Ti      13.54009      9.72618     10.54657         0.839171     -0.830286      0.299527
Ti       5.80816      1.87201      2.14861         0.025509      0.940402     -0.308991
Ti       5.83030      2.02756     14.69483        -0.412596     -0.685454      0.731940
Ti       5.75232     13.71248      2.07091         0.475580     -1.145416     -0.533555
Ti       5.83924     13.73698     14.66156         0.077628     -0.618609      0.022004
Ti       5.84494      1.99217      6.41112        -0.259101     -0.526665     -0.743668
Ti       5.84089     13.75041      6.33910        -0.578468     -0.050358     -0.420411
Ti       5.79643      1.84153     10.47651         0.512837      0.033915     -0.317191
Ti       5.87116     13.67376     10.37218         0.115759     -1.073950      0.060967
Ti       5.90313      5.87686      2.37492        -0.050583      0.334714      0.025845
Ti       5.83034      5.98272     14.55155         0.896056     -1.392543     -0.670062
Ti       5.89469      5.83358      6.38730        -0.346947     -0.905209     -1.086360
Ti       5.93021      5.76973     10.42433        -0.688458      0.749768      0.528283
Ti       5.74126      9.80941      2.12529         0.357638     -0.438834     -0.031597
Ti       5.78019      9.77039     14.67763        -0.531924      0.733238     -0.154564
Ti       5.79082      9.86209      6.31749         0.221769     -1.273017      0.484713
Ti       5.89283      9.70475     10.41285        -0.948740      0.400228     -1.312249
Ti       9.70104      1.86960      2.25838         0.508205      1.070870     -0.203284
Ti       9.62973      1.98656     14.55294         0.792778     -0.221027     -0.160065
Ti       9.65088     13.58077      2.18827         0.418006     -1.290993     -1.109198
Ti       9.68017     13.69076     14.57639        -0.128661     -0.117554      0.480163
Ti       9.67784      1.90001      6.31621         1.985774     -0.474651      1.558007
Ti       9.74497     13.60309      6.40099         1.536789     -0.298419      0.036436
Ti       9.78036      1.98204     10.43784        -0.208127     -0.064980     -0.157051
Ti       9.76920     13.67314     10.44950        -0.355998     -1.098240     -0.254486
Ti       9.74025      5.81190      2.26119        -0.092296     -0.058331      1.729823
Ti       9.75210      5.83756     14.47281         0.179295      0.012582      0.635408
Ti       9.81101      5.66467      6.34702        -0.548710      0.803523     -0.321483
Ti       9.80103      5.86390     10.39562         1.417502     -0.107927      0.948369
Ti       9.66210      9.72456      2.29517         0.580551     -0.173189     -0.933050
Ti       9.64681      9.80835     14.63212         0.620419     -1.236641      0.523523
Ti       9.69555      9.68032      6.41831         0.573588      0.341820      0.038083
Ti       9.71056      9.78955     10.40756         0.394708      0.070074      0.064984
O       1.94876      1.75578      0.26287         0.023403      0.313015      1.238266
O       1.86936      2.11469     13.00878         0.223228     -0.538459     -0.408300
O       1.82890     13.66051      0.31502        -0.011226     -0.279190     -0.070425
O       2.01740     13.62122     12.96981         0.342751      0.035427     -0.380439
O      13.44399      1.88250      0.26871         0.007536     -0.367945      0.278290
O      13.62892      1.76710     12.99315        -0.037425      0.255472     -0.154889
O      13.77477     13.47272      0.35465        -0.605523      0.404010     -0.006641
O      13.47648     13.64796     12.82898         0.301161      0.359252     -0.638454
O       1.86761      1.90672      4.31395         0.271667      0.315343      0.956327
O       2.03348     13.55862      4.46821        -0.016625      0.166307      0.328432
O      13.66406      2.01779      4.44023         0.435868      0.109238     -0.471064
O      13.54853     13.63280      4.47778        -0.047808     -0.052477     -0.466974
O       1.89605      1.87311      8.78606         0.188636      0.089810     -1.294344
O       1.72497     13.52192      8.76662         0.209074      0.671633     -0.420553
O      13.72846      1.91035      8.68748         0.168355      0.224747      0.618528
O      13.83210     13.61996      8.82454         0.068139     -0.334055      0.016353
O       2.13694      5.89493      0.38066        -0.217994     -0.476017      0.655569
O       1.76448      5.54300     13.09094         0.949115      0.439352     -0.124785
O      13.42309      5.91757      0.43509         0.351747      0.089523     -1.028191
O      13.78399      5.77793     12.76741        -0.283527     -0.294058      1.582526
O       1.93895      5.70736      4.52113        -0.370958      0.209380     -0.784726
O      13.85638      5.60210      4.55951        -0.590300      0.420357     -0.324080
O       2.14019      6.03297      8.58111        -0.103595     -0.459331     -0.550232
O      13.69871      5.66759      8.80915        -0.167347     -0.118679     -1.885719
O       1.96216      9.59123      0.28393         0.022401      0.057813      0.291619
O       2.12571      9.78199     12.84118        -0.411883     -0.602783      0.222218
O      13.68718      9.69871      0.27921        -0.025404     -0.093146     -0.463089
O      13.66463      9.67641     12.69562        -0.002485     -0.089890      1.192262
O       1.90636      9.72489      4.53190        -0.267567      0.344998     -0.271041
O      13.68438      9.70445      4.65687         0.258932     -0.150008     -0.593921
O       1.91185      9.57858      8.71025         0.361984      0.118739     -0.793447
O      13.57975      9.49382      8.68278         0.295537      0.715355      0.335636
O       5.97310      1.91962      0.33443        -0.423898      0.423956      0.515704
O       6.05844      1.94452     12.92284        -0.592644      0.060776     -1.209477
O       5.89321     13.69625      0.28503        -0.100434     -0.082885      1.039863
O       5.83676     13.63486     12.86954        -0.138457      0.279468     -0.284303
O       5.82048      1.91392      4.58668         0.183233     -0.061227      0.656983
O       5.75630     13.72082      4.51342         0.048820     -0.095483      0.731752
O       5.77492      1.84805      8.67286         0.155526      0.192330      0.727351
O       5.82675     13.77661      8.53104         0.335737     -0.592637      0.943059
O       5.90356      5.74457      0.57832        -0.218515     -0.202653     -1.298347
O       5.90828      5.82708     12.73412        -0.011214      0.136465      0.801291
O       6.07673      5.65341      4.58108        -0.748910      0.065526     -0.165987
O       5.77097      5.79914      8.64103         0.276361      0.050329      0.191298
O       5.67277      9.60858      0.27415         0.968021      0.288166      1.212237
O       5.83964      9.77417     12.89124         0.231531      0.026637     -0.421735
O       5.87147      9.85634      4.56621        -0.159643     -0.356667     -1.049399
O       5.74538      9.72786      8.59920         0.309198     -0.018981      0.765929
O       9.73777      1.91644      0.45055        -0.278597      0.115192      0.577641
O       9.63169      1.76615     12.76609         0.169746      0.232822      0.631892
O       9.72259     13.43289      0.37476        -0.271458      0.107416      0.490164
O       9.87678     13.71059     12.78245        -0.304446     -0.053784      0.633821
O       9.71038      1.77638      4.56167        -0.120362     -0.551078     -1.584528
O       9.80461     13.76273      4.57109        -0.237843     -0.096525     -0.262189
O       9.88887      1.94408      8.58399        -0.097399      0.055947      1.568011
O       9.75740     13.42295      8.63296        -0.079928      0.426221      0.418367
O       9.72655      5.83391      0.51398         0.191969     -0.117126     -1.276983
O       9.80100      6.17195     12.72416        -0.211194     -0.629985     -0.387758
O       9.87379      6.00315      4.60266        -0.671258     -0.638518     -0.208066
O       9.80351      5.72957      8.58484         0.351724     -0.177853      0.200928
O       9.70170      9.72779      0.48116        -0.078865     -0.144191     -0.132037
O       9.62893      9.44451     12.85308        -0.039290      0.759648     -0.245947
O       9.65301      9.69349      4.60947         0.014756     -0.159564     -0.131604
O       9.71177      9.79885      8.62181         0.055981      0.132013     -0.154416
O       3.84084      1.76009      2.35938         0.862901      0.314041      0.018673
O       3.93190      1.67684     14.96118         0.274679      1.018341     -0.235114
O       3.84010     13.82465      2.26482         0.736371     -0.570382      0.570476
O       3.89925     13.57209     15.04253        -0.161579      0.342631     -0.061161
O       0.02183      1.97219      2.27065        -0.480401      0.037493      0.304412
O      15.51858      1.85933     15.03948         0.190009     -0.001922      0.032655
O       0.00028     13.50800      2.44840        -0.250563      0.092665      0.495810
O      15.56427     13.51134     14.84036        -0.146758      0.755292      0.357969
O       3.87712      2.03645      6.64074        -0.366917     -0.235830     -0.215441
O       3.83444     13.59179      6.68095         0.755361      0.216348     -0.256665
O       0.03293      1.88424      6.51342         0.370781     -0.016866      0.051663
O      15.57948     13.82675      6.39397         0.608716     -0.649607      0.445349
O       3.91522      1.98698     10.84012         0.910096     -0.565068      0.103304
O       3.97280     13.70409     10.77133        -0.678911     -0.196902     -0.211626
O       0.04589      2.02902     10.86952         0.335448     -0.512464     -0.024185
O       0.05571     13.61738     11.00746         0.714232     -0.026864     -0.012199
O       3.93233      5.83700      2.65239        -0.361313     -0.415817     -0.145027
O       3.97795      5.95231     14.96892        -0.005964     -0.244528     -0.312404
O       0.01364      5.77315      2.40435         0.756504     -0.266965     -0.110061
O      15.51139      5.72511     15.17950         0.904486     -0.195860     -0.094049
O       3.89619      5.56952      6.61441        -0.159300      0.655801     -0.357262
O       0.03967      5.77376      6.66093         0.309097      0.349673      0.098909
O       3.96532      5.83618     10.89079         1.239828     -0.163481     -0.292570
O       0.09893      5.78338     10.63790         0.504652     -0.528738      0.059635
O       3.90372      9.56140      2.57098        -0.284614      0.687396     -0.383745
O       3.88937      9.60292     14.92402         0.551458      0.197960      0.044808
O      15.59434      9.79191      2.28152         0.138761     -0.289239      0.673911
O       0.05557      9.69889     14.70178        -0.960934      0.146421      0.402822
O       3.86047      9.90638      6.54033        -0.177412     -0.390242      0.107002
O       0.00029      9.72907      6.71245         0.674752     -0.383469     -0.144331
O       3.96091      9.76067     10.76526         0.103261     -0.555419      0.138060
O       0.05942      9.62864     10.85156         0.715501     -0.084155     -0.335467
O       7.75976      1.75307      2.45491         0.593030      0.779571      0.290359
O       7.73103      2.06425     14.94675         0.892452     -0.168306      0.466099
O       7.71554     13.57865      2.37962         0.197404     -0.189665      0.642547
O       7.78784     13.59012     14.88166         0.895649     -0.770403     -0.030232
O       7.91007      1.86480      6.76798        -2.069989     -0.105596     -0.223826
O       7.84033     13.60027      6.58954        -1.820243      1.051508     -0.027321
O       7.89234      1.77004     10.73831        -0.822173      0.195285     -0.239219
O       7.79449     13.58717     10.78169         0.260394      0.226761     -0.305924
O       7.74984      5.58647      2.47730         1.182219      0.470684      0.415010
O       7.89482      5.84485     14.71651        -1.136059      0.019453      0.822988
O       7.84830      5.80361      6.71553        -0.097875     -0.136665      0.174729
O       7.90601      5.91246     10.59345        -1.259010     -0.057182      0.378789
O       7.76938      9.79013      2.54631        -0.583879     -0.092316     -0.285573
O       7.80027      9.84745     15.05642        -0.101867     -0.358231     -0.245123
O       7.65137      9.60650      6.72724         1.143946      0.099931     -0.354242
O       7.82881      9.83222     10.84594        -0.045216     -0.697634     -0.799909
O      11.72155      1.82106      2.54001        -1.392837     -0.179948     -0.185095
O      11.57890      1.99445     14.89023        -0.394910     -0.872862     -0.030108
O      11.68011     13.75112      2.21683        -0.516774      0.033358      0.518662
O      11.62775     13.62386     15.05101        -0.296428      0.539957     -0.140984
O      11.79688      1.87573      6.55054         0.067466      0.001861     -0.297879
O      11.71915     13.58663      6.69244         0.379468     -0.278165     -0.102168
O      11.74303      1.76362     10.81650        -0.210093      0.779340     -0.143808
O      11.81979     13.42852     10.73156        -0.541456      0.703855     -0.442483
O      11.72482      5.83101      2.58777        -0.100972     -0.012708     -0.078043
O      11.69106      5.73643     14.82307         0.072756      0.628196      0.186857
O      11.71854      5.65234      6.50497         0.900473      0.291326      0.594932
O      11.69791      5.63524     10.73637        -0.103665      0.062846     -0.300383
O      11.69200      9.56899      2.36583         0.391256      0.365431      0.825883
O      11.77809      9.63587     14.87638        -0.581506     -0.168299      0.025472
O      11.70484      9.72380      6.55930        -0.956577      0.145222      0.343789
O      11.75327      9.78495     10.76838        -1.358690     -0.089662     -0.020111
O       2.01756      3.84433      2.31478         0.172518      0.078642      0.244744
O       2.06309      3.80407     15.12336         0.060291      0.657654      0.603397
O       1.85368     15.51501      2.39690        -0.184440      0.679032      0.369578
O       1.93147     15.53827     14.98521        -0.323761     -0.174949     -0.145670
O      13.59570      3.87010      2.16851        -0.073993     -0.377765      0.551017
O      13.49119      3.84155     15.04737         0.647029      0.261605     -0.063819
O      13.76893     15.56247      2.45110        -0.328149      0.133145     -0.342713
O      13.47861     15.50867     14.99259         0.314471      1.383265      0.403942
O       1.83530      3.84936      6.57206         0.163663     -0.037784      0.115433
O       2.03213     15.59918      6.65637        -0.118611      0.362550     -0.310344
O      13.75231      3.85968      6.65536        -0.041735     -0.513535     -0.017760
O      13.68316     15.57389      6.62213        -0.085839      0.150873     -0.400967
O       2.24240      3.92284     10.54568        -0.749395     -0.374886      0.701994
O       2.00067     15.57566     10.81119        -0.158312      0.251630      0.130795
O      13.67707      3.76243     10.97694        -0.198471      0.127285     -0.564020
O      13.75140     15.54771     10.80392         0.107697      0.375363      0.370615
O       1.93314      7.71191      2.45841        -0.271775      0.499802      0.482180
O       1.91787      7.74017     15.03667        -0.118489     -0.450855     -0.428588
O      13.77320      7.77816      2.52263        -0.011805     -0.128355     -0.047344
O      13.84921      7.74491     14.82646        -0.634983      0.106937     -0.005607
O       2.07902      7.86699      6.37350         0.124261     -1.503878      0.310685
O      13.66395      7.71910      6.74248        -0.034970     -0.992967     -0.357140
O       2.18859      7.67738     10.88458        -0.657286      0.768179     -0.313785
O      13.77168      7.69405     10.79247        -0.077554     -0.147800     -0.362431
O       1.97235     11.62238      2.35417         0.510788     -0.181327      0.289823
O       1.93764     11.61970     15.02180         0.281065     -0.044665      0.075258
O      13.54306     11.66782      2.48168         0.137225     -0.804424      0.128209
O      13.55033     11.77144     14.82525         0.106354     -1.763535      0.415024
O       1.86091     11.74062      6.70805        -0.025057     -0.058250     -0.313542
O      13.76214     11.61404      6.65441        -0.200580      1.314111      0.337074
O       2.03448     11.62152     10.84082        -0.336947      0.595607     -0.409064
O      13.78196     11.58762     10.70686         0.319201      0.605887      0.068403
O       5.77432      3.71776      2.65114         0.206796      0.284789     -0.927224
O       5.75936      3.95784     14.95682         0.112127     -0.013369      0.037068
O       5.89788     15.60237      2.47000        -0.399843     -0.592602      0.090049
O       5.92381     15.53233     14.93025         0.145429      1.348145     -0.095708
O       5.99566      3.83235      6.73885        -0.257456     -0.311842     -0.208528
O       5.75188      0.04359      6.65014         0.395597     -0.850015     -0.182365
O       6.02812      3.85729     10.66768        -0.242273     -0.087133      0.087653
O       5.92090     15.53595     10.75317        -0.365433      1.094579      0.276867
O       5.88353      7.77777      2.45169         0.485020     -0.145878      0.523256
O       6.06169      7.84141     14.81603        -0.363864     -0.983127      0.276979
O       5.76580      7.63646      6.47004        -0.271591      1.380975      0.488445
O       5.94257      7.84316     10.66257        -0.219193     -1.132536      0.329088
O       5.68766     11.69080      2.26714        -0.182350      0.072748      0.155834
O       5.80567     11.70272     15.04105        -0.002697     -0.721579     -0.185326
O       5.85655     11.68690      6.58036         0.011310      1.542820      0.153403
O       5.85652     11.68709     10.79039         0.259113      0.225903     -0.344258
O       9.72939      3.83965      2.63193         0.164726     -0.776710     -0.326063
O       9.75786      3.88691     14.62037        -0.409511      0.348350      0.285026
O       9.59365     15.43488      2.37134         0.606491      1.505708      0.365473
O       9.53529     15.59479     15.00712         0.852463     -0.153254     -0.241477
O       9.83256      3.75882      6.38441        -0.366018      1.108731      0.199425
O       9.85381     15.51275      6.79435        -0.615023      0.332357     -0.362527
O       9.69465      3.83945     10.84402         0.215736     -0.119578     -0.349155
O       9.94075     15.45147     10.67281        -0.367459      1.186435     -0.330092
O       9.69537      7.76934      2.59263        -0.325020     -0.351003     -0.226117
O       9.90191      7.82083     14.94865        -0.775706     -0.746095      0.257359
O       9.78144      7.78270      6.69515        -0.294832     -0.084159      0.297890
O       9.93912      7.86583     10.51456        -0.532918     -0.922137      0.296724
O       9.80715     11.65241      2.79324        -0.114516      0.256892     -0.757061
O       9.94449     11.55924     14.73293        -0.477401      1.847976      0.235749
O       9.47269     11.68193      6.46393         0.494470     -0.665335      0.054431
O       9.83713     11.67320     10.86717        -0.666637     -0.425963     -0.118635
