  # total energy = -7846.47576269 
CRSYTAL
PRIMVEC
    15.6080000000000005    0.0000000000000000    0.0000000000000000
     0.0000000000000000   15.6080000000000005    0.0000000000000000
     0.0000000000000000    0.0000000000000000   16.6239999999999988
PRESSURE
1.38006 0.770899 -2.05498 0.005529 0.004455 0.134808
PRIMCOORD
320 1
Pb       3.97194      4.12262      4.23375        -0.254367     -0.969401     -0.792473
Pb       3.91045      4.08304      0.15686         0.072106     -0.703437      0.187215
Pb       4.00645      0.12787      4.41533         0.558418     -0.265680     -0.512587
Pb       3.75518     15.42819      0.01404         0.319420      0.996027     -0.139183
Pb       0.13675      4.02736      4.27341         0.081289     -1.253724      0.044953
Pb       0.03974      3.80387      0.09589         0.331485     -0.310614     -0.171487
Pb      15.47475     15.52214      4.47945         0.124536     -0.205721      0.155741
Pb       0.31890     15.43926     16.60825        -1.205577      0.929449      0.206590
Pb       3.88771      3.66481      8.29375         0.411970      1.579041      0.437388
Pb       3.81104      0.01386      8.35732         0.685733     -0.993408      0.195430
Pb      15.40410      4.07083      8.15055        -0.520892     -0.829390      0.699157
Pb      15.32047      0.11782      8.07268         0.375754     -0.461161     -0.092162
Pb       4.06974      3.89536     12.39093        -0.366745     -0.459882      0.011554
Pb       3.81985      0.02824     12.41841        -0.238271     -0.597160     -0.426051
Pb       0.03294      3.66121     12.64822        -0.303070     -0.567658     -0.331889
Pb       0.01203      0.03442     12.29592        -0.063712     -0.267236     -0.737631
Pb       3.70163      7.92401      4.25489         0.119949      0.418033      0.366230
Pb       3.59708      8.06863      0.12791         2.050316     -0.947709      0.525325
Pb      15.53176      7.90390      4.10495         0.721402      1.003774      1.100194
Pb       0.12244      7.94154      0.14767        -1.256265     -0.160586     -0.162995
Pb       3.81907      7.92226      8.63244        -0.491239     -0.432770     -0.163228
Pb       0.02041      7.54415      8.46686        -0.104881      0.861345      0.993958
Pb       3.84079      7.71653     12.72328        -0.095681      0.582214     -0.118845
Pb       0.22749      7.44506     12.77680        -0.545888      1.304115      0.403880
Pb       3.84011     11.83246      4.37437        -0.387249     -0.104529     -0.203699
Pb       3.68492     11.80408     16.62071         0.327846     -0.316855      0.851108
Pb      15.51203     11.61712      4.65911         0.432302      0.415647     -0.469517
Pb       0.05570     11.85067     16.60583        -1.395702     -0.649648     -0.276078
Pb       3.85713     11.68595      8.64640         0.135511      0.247318      0.334365
Pb      15.48381     11.23265      8.22858         0.311712      1.101087      0.859309
Pb       3.63001     11.83582     12.52912         0.710606      0.278679     -0.072613
Pb      15.43208     11.74449     12.39152         0.224062      0.795851      0.895947
Pb       7.71923      4.15621      4.18953         0.450691     -0.948168      0.067908
Pb       7.84181      3.65860     16.61279         0.023458     -0.094523     -0.022893
Pb       7.76918      0.11020      4.02663        -0.424253     -0.190989      0.636566
Pb       7.70319      0.17701      0.05179         0.414443      0.232665     -0.040772
Pb       7.84103      3.94301      8.60164         0.742108      1.027079     -0.356174
Pb       7.76752      0.19554      8.30184         0.309829     -2.277404      1.255351
Pb       7.97717      3.79111     12.62415        -0.193723      0.181362      0.279004
Pb       7.67516     15.38906     12.70732         0.761772     -0.029197     -0.200347
Pb       7.73759      7.71363      3.96786         0.384240      0.499664     -0.493148
Pb       7.82020      7.94483     16.42431        -0.857823     -0.950775      1.315460
Pb       7.90655      7.75798      8.32393        -0.130473     -0.107132     -0.452134
Pb       7.59544      7.69271     12.76788         0.298792      0.331967     -1.506571
Pb       7.59574     11.92052      4.24708        -0.155367      0.215045      0.297109
Pb       7.61225     11.38027     16.60821        -0.167379      0.465480      0.359668
Pb       7.55310     11.86361      8.52000        -0.481237     -0.373761     -0.289090
Pb       8.08866     11.96470     12.78026        -1.418024     -0.192019     -0.938988
Pb      12.01251      3.96301      4.04094        -0.934895     -0.513417     -0.329462
Pb      11.99640      3.79670      0.05150        -0.835293     -0.568593      0.227490
Pb      11.87555     15.43998      4.10719        -0.871631      0.266779     -0.079471
Pb      12.15178     15.53250      0.29669        -0.842946      0.157867     -0.502849
Pb      11.60846      4.04020      8.39295         0.041474      0.339195      0.731419
Pb      11.44347      0.22256      8.12578         0.209009     -0.845172      0.539681
Pb      11.79306      3.80800     12.72549        -0.160052      0.462459     -0.596838
Pb      11.70531     15.53835     12.13698        -0.505708     -1.246381      0.871324
Pb      11.60017      7.64320      4.16617        -0.594759      0.701089     -0.388474
Pb      11.98046      7.72355     16.56596        -0.568063      0.339669      0.343635
Pb      11.64822      7.74128      8.41971         0.294661     -0.212529      1.256074
Pb      11.66477      7.71935     12.46813         0.139460      0.168902     -0.476524
Pb      11.61237     11.65836      4.33041        -0.107200      0.202224      0.057142
Pb      11.75990     11.62943      0.13962         0.435784      0.263884     -0.846548
Pb      11.66487     11.17322      8.17271        -0.409197      0.636104      0.482880
Pb      11.39277     11.50798     12.16975         1.388495      0.790810      1.345845
Ti       1.96891      1.93645      2.37663         1.168709      0.108820     -0.506545
Ti       2.02213      1.93294     14.66572        -0.302157      0.287820      0.997616
Ti       1.90869     13.64207      2.34959         0.472495     -2.852081      2.412876
Ti       1.75490     13.68672     14.51621         0.048447     -0.615318     -2.099209
Ti      13.84298      1.97011      2.01271        -1.603388     -0.293107      0.435319
Ti      13.62707      1.87744     14.45031         1.348541     -1.091635     -0.219940
Ti      13.85838     13.54648      2.05443        -1.223800     -0.664699     -0.064472
Ti      13.54602     13.65712     14.32229        -0.973542     -1.334318      1.788612
Ti       2.07185      2.01724      6.29054        -1.800217     -0.708018     -1.767977
Ti       1.94364     13.76517      6.47491        -0.869442     -1.424458     -0.206792
Ti      13.49750      1.95273      6.08672         0.928687      0.706026     -0.607132
Ti      13.35214     13.55313      6.43320         0.855609     -0.524933     -0.072941
Ti       1.93650      1.99273     10.10864        -1.221576     -0.186055      2.150463
Ti       1.79711     13.68063     10.34906        -0.056945      0.083078      0.632543
Ti      13.55470      1.88385     10.24721         1.543620      1.959679      1.098812
Ti      13.50506     13.56659     10.09181         0.841563      0.226561      1.374939
Ti       1.86865      5.98384      2.42874         1.864155     -0.108915     -3.621360
Ti       1.92669      5.83637     14.99676        -0.644319     -1.418817     -0.888108
Ti      13.80341      6.00188      2.34516        -0.744950     -1.727772     -1.542317
Ti      13.65951      5.84755     14.76583         1.016127      1.299026      0.440784
Ti       1.93131      5.86330      6.53033         1.909244      2.138064     -0.475502
Ti      13.79391      5.76772      6.20898        -2.419495      0.639221      1.059976
Ti       2.01536      5.82271     10.66197         0.078182     -0.269685     -4.431199
Ti      13.74575      5.83203     10.80639        -1.566106     -0.366620     -4.502940
Ti       1.84116      9.94662      2.19512         0.371199      0.582447      1.714455
Ti       1.87949      9.80067     14.87056        -0.634133      0.970225     -5.043065
Ti      13.53848      9.69919      2.19888         0.374530      1.407933      0.007239
Ti      13.60487      9.77761     14.67934        -0.141543      0.625263     -0.643445
Ti       2.02193      9.85769      6.47443        -2.297714     -0.341817      0.253772
Ti      13.64340      9.49247      6.36881         0.691412      1.683150     -1.956902
Ti       1.93311      9.79574     10.86397        -0.795487     -1.469484     -0.524733
Ti      13.74830      9.73392     10.70407        -2.535960     -1.219371     -0.462536
Ti       5.78975      1.91347      2.11833        -0.262085      0.817693     -0.737269
Ti       5.80534      1.72377     14.63734         0.720530      1.191095     -0.044363
Ti       5.66260     13.74649      2.22012         0.444952     -0.751111      1.301421
Ti       5.75040     13.41799     14.80655        -0.733042      1.670055     -0.753835
Ti       5.94546      2.02130      6.41965        -0.494500     -1.174560     -2.533611
Ti       5.63921     13.58300      6.47298         1.460522      0.513832     -0.222465
Ti       5.80639      1.92493     10.34686         0.112630     -1.204060      0.473340
Ti       5.85101     13.71466     10.57209        -1.055636     -1.536365      0.091266
Ti       5.68927      5.95109      1.97795         0.839829      0.328873      3.015582
Ti       5.77443      5.73234     14.49207         0.640866     -1.061740      0.774556
Ti       5.81193      5.86207      6.09452         1.271216      0.718711      1.078044
Ti       5.90782      5.76832     10.53154         0.210382      1.216917     -1.336014
Ti       5.77956      9.79259      2.32051        -0.757276     -0.134546     -1.403823
Ti       5.71688      9.63190     14.49914        -0.682205      0.006334     -0.572996
Ti       5.78378      9.65570      6.16806         1.255168      1.503068      0.204279
Ti       5.66237      9.56771     10.53582         1.488382      1.283858     -0.285608
Ti       9.81337      2.01420      2.32505         0.424358      0.046682      0.178293
Ti       9.89794      1.96606     14.65941        -0.906081     -0.114797      1.539601
Ti       9.73080     13.68121      2.10238        -0.267909      0.240458     -0.758964
Ti       9.67907     13.72679     14.79593         3.022553      0.569657     -1.026305
Ti       9.75149      2.03132      6.33140        -0.587266      0.204138     -1.828471
Ti       9.58654     13.57501      6.22015         0.667153     -0.149877      0.991064
Ti       9.77247      1.81142     10.63186        -1.342490      0.226769      0.377777
Ti       9.74285     13.44210     10.20587        -1.322334      1.412311      0.740325
Ti       9.59111      5.69333      1.98784         0.271825      2.139860      0.047556
Ti       9.76029      5.94774     14.54175         0.375787     -1.984749     -0.566078
Ti       9.92756      5.77793      6.12425        -1.439255     -0.315570      0.754454
Ti       9.76832      5.78049     10.58723         0.708570      0.991558      0.157200
Ti       9.71245      9.83608      2.08341         0.043122     -1.810752      3.424574
Ti       9.72347      9.59493     14.45507         1.072481      1.752233     -0.153092
Ti       9.75133      9.47762      6.03671        -1.329473      1.851641      1.967984
Ti       9.54556      9.61567     10.53850        -0.198574     -1.402556     -0.443957
O       1.79800      1.57645      0.08498         0.535519      0.339340      1.585907
O       2.13694      2.20084     12.83741        -0.335330     -0.575833      0.578689
O       1.73528     13.40918     16.39109         1.159476      0.427677      1.804011
O       1.75717     13.63406     12.44750         1.187342      0.412603      0.534326
O      13.65420      1.89349      0.07893        -0.521904      0.922920      0.091405
O      13.73670      2.08289     12.52851        -0.449212     -0.972527      1.841468
O      13.69271     13.67585      0.25451         0.189889     -0.626387      0.450204
O      13.48503     13.33698     12.64109         0.231810      0.698480     -2.749625
O       2.14018      1.94413      4.30780        -0.745477     -0.014547     -0.188409
O       1.96597     13.21622      4.18785        -0.123908      1.497608      0.025089
O      13.49069      1.87815      4.20802         1.136667     -0.232506     -0.318798
O      13.63178     13.72663      4.61505        -0.252143      0.257754     -1.821983
O       2.12026      1.98884      8.27983        -0.958074     -0.016829      0.573346
O       1.89417     13.84890      8.33467         0.242573     -0.004226      1.712153
O      13.64197      2.17671      8.32980        -0.300732     -0.587920      0.804148
O      13.63224     13.98664      8.36267         0.205914     -0.284994     -0.958654
O       1.74834      5.98982      0.11364         0.370077      0.079958      1.100871
O       2.10161      5.93038     12.31420        -1.090448     -0.548797      4.127137
O      13.83306      6.28250      0.04562        -0.371630     -1.723535      0.108605
O      13.78084      5.70679     12.47379        -0.103151      0.552589      3.152990
O       2.08292      6.04612      4.12349         0.078697     -0.974853      2.068143
O      13.99434      5.66008      4.26585        -0.256617      1.659955     -0.640349
O       2.09054      5.97338      8.35794        -0.339042     -0.579328     -0.629240
O      13.61433      5.68904      8.20499         0.719078     -0.435316     -0.897548
O       1.98709      9.68231     16.62193        -0.630324      0.888331      1.613740
O       1.86508      9.41671     12.65680        -0.017526      1.024682     -0.577122
O      13.31631      9.76076      0.19413         0.885944     -0.938916     -1.560329
O      13.49953      9.66000     12.49964         0.860303      0.892484      0.892119
O       1.83758     10.04756      4.18577        -0.094026     -0.977994     -1.249460
O      13.75638      9.75507      4.21633         0.269588     -0.513410     -1.250853
O       1.97785      9.65982      8.39799         0.231922      0.418214     -1.469952
O      13.79699      9.52918      8.12877         0.017367      0.613446      2.618066
O       5.76634      1.73043      0.17192        -0.050324      0.102564      1.069633
O       6.00796      2.00305     12.68742        -0.803054     -0.700506      0.413651
O       5.51603     13.44992      0.19117         1.003399      0.411247     -1.067391
O       5.80030     13.58326     12.60371         0.127817      0.221243     -0.238555
O       5.90832      1.74692      4.46689         0.059789      0.760781      0.861729
O       5.92108     13.57000      4.21649        -1.026205      0.302121     -0.160454
O       5.82704      1.60425      8.46546        -0.189850      1.593736      0.569898
O       5.75400     13.64178      8.40716         0.864634     -0.493942      0.165475
O       5.70974      6.01251      0.30508         0.842550     -0.326658     -3.661847
O       5.93150      5.47828     12.71292        -0.860154      0.581601     -1.107615
O       5.62711      5.69529      4.24906         1.383732      0.669940      1.014277
O       6.06892      5.72020      8.62274        -0.261693      0.640110      1.295480
O       6.17968      9.55922      0.17144        -0.781482      0.614806     -0.262799
O       5.58782      9.71182     12.68517         0.898031      0.153016      0.397950
O       5.43725      9.72639      4.30664         1.524797      0.145338     -0.100560
O       5.63563      9.39732      8.57291        -0.008295      0.986296      0.882611
O       9.91917      2.12349     16.60727        -0.158841      0.632926      0.320970
O       9.58743      1.80455     12.67348         0.660320      0.123852     -1.818535
O       9.94159     13.48780      0.14710        -1.042579      0.742536      1.368602
O       9.74729     13.74566     12.66312        -0.770927     -0.347846      0.759571
O       9.68308      1.99490      4.36920        -0.515158     -0.574403     -0.386073
O       9.97571     13.50636      4.48226        -0.066448      0.924727     -1.841776
O       9.98371      2.15887      8.29808        -0.118748     -0.740309      0.398610
O       9.50117     13.53769      8.44193         0.598047     -0.958335     -0.367208
O       9.64254      5.57996      0.17004         0.344277      0.331184      0.260285
O       9.97216      6.03384     12.67960         0.202888      0.086514     -0.119685
O       9.89908      5.72315      4.39383        -0.846797      0.927691     -1.165135
O       9.58907      5.82184      8.74914         0.158498     -0.862178     -1.611581
O       9.54027      9.87294      0.40502         0.101238     -0.137360     -2.788802
O       9.81390      9.41546     12.65271        -0.199532      0.315725      0.053434
O       9.71811      9.42188      4.32121         0.372189      0.071874     -1.701076
O       9.87605      9.57998      8.79204        -0.404339      0.627604     -2.008971
O       3.92287      1.59996      2.48275        -1.331954      0.727320     -1.212536
O       3.95391      1.54690     14.88505        -0.668939      1.046113     -0.822265
O       3.80411     13.86174      2.14047         1.627156     -0.381540     -0.061751
O       3.73191     13.76473     14.52829         1.664110     -0.597628      0.455988
O      15.58322      2.09109      2.22244         2.088096      0.517979      0.714629
O      15.45715      2.11950     14.68610         1.022027     -0.155803     -0.406039
O       0.05823     13.20727      2.41918        -1.822589      0.382209     -1.285073
O      15.47927     13.52979     14.59086         0.236674      0.278862     -0.152549
O       3.94090      2.10034      6.54024         0.801380     -0.210977     -0.374788
O       3.83011     13.35384      6.34646         0.858310      0.430619     -0.170444
O       0.11821      1.91611      6.31615         0.474555     -0.891400      0.143237
O       0.09736     13.94217      6.39691        -0.819747      0.383001     -0.399964
O       3.84258      1.87266     10.42999         1.677745     -0.084580      0.164717
O       3.95956     13.81303     10.34614        -0.788467     -0.096404      0.618687
O       0.10192      1.91406     10.74081         0.409737      0.211188     -1.047536
O      15.57547     13.47291     10.72116         0.071505      0.657273     -1.253993
O       3.89514      5.67240      2.08873        -2.342523      0.545095      0.464581
O       3.93846      5.63633     14.63895        -1.349973      0.112589      0.129721
O       0.12615      5.68287      2.49169        -0.651848      0.295777     -1.118133
O       0.01280      5.64793     14.59557         1.530100      0.367266     -0.438248
O       3.98748      6.04314      6.20717        -0.848330     -0.711832      0.735754
O       0.05454      5.86517      6.49615         0.138738      0.011572     -0.324180
O       3.93314      5.87885     10.73312         0.823897     -0.415284     -0.958412
O       0.05419      5.98045     10.38243        -0.219913     -0.663070      0.002730
O       3.90765      9.61059      1.72229         0.237319      0.748506      0.960002
O       3.76736      9.60408     14.65060         1.252066     -0.124645      0.621938
O       0.04759     10.14880      1.84608         0.003893     -0.695998      0.519022
O       0.05099      9.79626     14.73415        -1.633698     -0.320345      0.384341
O       3.73091      9.89983      6.10408         2.344034     -0.485815      0.918876
O       0.00756      9.94576      6.34679         0.070931     -1.049874     -0.730359
O       3.79262      9.80414     10.80521         0.721069     -1.185506     -0.700090
O      15.53337      9.99610     10.62455         1.712555      0.245275     -0.488573
O       7.80638      2.06395      2.02899         0.020828     -0.229300      0.281126
O       7.76496      1.95757     15.07667        -0.126597     -0.510451     -0.922602
O       7.79550     13.82914      2.35413         2.208445     -0.749952     -0.704836
O       7.78549     13.62891     14.58240        -1.170845      0.010766      0.758810
O       7.70374      1.47009      6.57887         1.188967      2.538714     -1.374519
O       7.81640     13.72573      6.13869        -0.231927     -0.204515      0.510364
O       7.99085      1.96844     10.32980        -2.013962      0.144594     -0.140248
O       7.87366     13.53735     10.46546        -2.279188     -0.050589      0.459286
O       7.71803      5.69715      2.44221         0.351561      0.254918     -0.610798
O       7.93371      5.91637     14.22028        -0.890914     -0.183465      1.926023
O       7.84268      5.89566      6.31489        -0.815681      0.433959     -0.591489
O       7.86805      5.78730     10.87202        -1.399619     -0.037047     -0.286933
O       7.67073      9.62195      2.31428         1.465153      0.321637      0.635652
O       7.79061      9.33672     14.65593        -0.239581      1.488224     -0.380314
O       7.82778      9.41373      6.28520         0.116181      0.180278      0.096313
O       7.67772      9.41776     10.59386        -0.228581      0.575106     -0.190399
O      11.67644      1.96198      2.24109         1.508397      0.136274     -0.401889
O      11.76541      2.20514     14.61161         0.003413     -0.552380     -0.174577
O      11.83754     13.83018      2.39688         0.183052      0.246535     -0.559401
O      11.64335     13.64328     14.64784        -1.297692     -0.039644      0.719423
O      11.69167      2.26684      6.10325         0.067340     -0.560344      1.316635
O      11.56497     13.55328      6.62852         0.797719      0.083675     -0.092916
O      11.71733      1.97110     10.66728         0.277844     -0.969569     -0.578071
O      11.62021     13.47026     10.49871         0.245352      0.490368     -0.095003
O      11.98072      6.15499      2.49702         0.193597     -0.817967     -0.988494
O      11.80629      6.02182     14.63510        -0.502259     -0.079689      0.313720
O      11.88709      5.61219      5.97337        -0.519583     -0.407525      1.361212
O      11.81713      5.85307     10.45519         0.772011     -0.530535      0.397788
O      11.68859      9.39732      2.25369        -0.250166      0.663929      0.181903
O      11.70759      9.71795     14.59818        -0.830618     -0.534613      0.607670
O      11.82621      9.68974      6.39869        -2.539601      0.374413     -0.300942
O      11.78579     10.05286     10.48373        -0.273608     -0.367843     -0.160843
O       2.01025      3.75121      2.01318         0.316309      0.115268      0.394883
O       1.88006      3.78476     15.30107         1.090610     -0.171616     -1.438076
O       1.80104     15.34889      2.44875        -0.935035      3.590395     -0.676550
O       1.77856     15.58401     14.75364        -0.137486     -0.071872     -1.243611
O      13.65649      4.04477      2.05313        -0.145076     -0.170569     -0.138599
O      13.58333      4.04247     14.66034        -0.228373     -1.832298      0.146862
O      14.15461      0.13251      1.90377        -1.714574     -2.284498      1.345028
O      13.56275     15.50951     14.55974         0.062459      2.480795     -0.062016
O       1.96314      3.99513      6.12634         0.239708     -0.052603      0.759167
O       2.36664      0.02085      6.22155        -0.918065      0.613541      0.286593
O      14.08920      3.82163      5.94057        -0.838771      0.486762      1.531285
O      13.65159      0.08676      6.26152        -0.456787      0.425649      0.843101
O       2.21160      3.82148     10.41528        -0.906340      0.888374     -0.094061
O       1.97093      0.00671     10.55754        -0.313635      0.393712     -0.032117
O      13.68620      3.73353     10.68251         0.329079      0.928825     -1.317747
O      13.84336     15.49126     10.48778        -0.918356      1.848402      0.619552
O       1.76901      7.94991      2.04313         0.252776     -1.449336      0.867469
O       1.97358      7.57021     14.44335        -0.387725      1.112407      0.941092
O      14.20778      7.85019      1.99819        -0.542753      0.177178      1.308898
O      13.87853      7.79555     14.55118        -0.469497      0.899213     -0.111816
O       1.76279      7.76341      6.03120         0.720557      0.517963      0.901065
O      13.41284      7.76209      6.19882         1.581573     -3.250246     -0.541776
O       1.82703      8.01496     10.38649         0.378595     -1.955553     -0.025546
O      13.56299      7.92348     10.32190         0.824336     -1.092278      0.663442
O       2.43186     11.67106      2.07960        -0.609789      0.352215     -1.054882
O       1.80436     11.64618     14.24964         0.925276     -0.316565      1.299985
O      13.37176     11.57428      1.97069         0.296149      1.604355      0.928221
O      13.46310     11.68487     14.61312         0.931825     -1.472420      1.079478
O       1.85607     11.84992      6.45081        -0.573708     -1.871178      0.125636
O      13.58617     11.69012      6.37371         0.244746      0.839470      0.592735
O       2.24486     11.75233     10.46938        -1.084539      0.405299      0.092492
O      13.67486     11.82143     10.02246         0.071033     -1.758108      0.392191
O       5.58615      3.76735      2.29622         0.493638      0.277835     -0.118722
O       5.95076      3.86679     14.82097        -0.289716     -0.136091      0.466415
O       5.87542      0.02997      2.42217         0.696985     -1.211912     -0.615352
O       5.97316     15.42024     14.83492        -0.004316      0.596773     -0.340924
O       5.90045      3.88704      6.39871         0.160675      0.105796      0.187073
O       5.73457     15.37325      6.41446        -0.771861      2.047852     -0.003881
O       5.82897      3.79279     10.43694        -0.148313     -0.251522      0.297256
O       5.77936     15.58027     10.57450         0.955876      1.151076      0.576326
O       5.59733      7.84381      2.45821         1.020171     -1.441590     -0.032977
O       5.84629      7.73030     14.59036        -0.468553     -1.089776     -0.024150
O       5.81506      7.93356      6.39522        -0.686880     -2.741090     -0.366492
O       5.65381      7.70301     10.92812         0.343827     -0.433601     -0.794638
O       5.86282     11.72424      2.40348        -0.272334     -0.555858     -0.878501
O       5.66072     11.53827     14.81424         0.867439      1.189300      0.033155
O       6.12706     11.72085      6.37802        -0.265084     -1.785854      0.104619
O       5.47663     11.65766     10.31725         1.795474     -0.098241      0.392383
O       9.92878      3.95105      2.48381        -0.221486      0.414431     -0.615673
O       9.77566      3.96542     14.37402        -0.201038     -0.176056      0.443641
O       9.85396      0.20355      2.18374        -0.708026     -2.968766      0.195723
O       9.72519      0.13182     14.68544        -0.266485     -2.154173      0.504218
O       9.53613      3.88385      6.24915         0.095645     -0.072125      1.108045
O       9.89926     15.58403      6.57705        -0.350322      0.367881     -0.601057
O       9.80960      3.90580     10.58889         0.158570     -1.437215      0.458211
O       9.60871     15.47903     10.39027         1.798450      1.121839      0.237630
O       9.76849      7.64619      2.39225        -0.943771     -0.302141     -0.456567
O       9.79186      7.80923     14.92350         0.316341     -0.483371      0.370481
O      10.04919      7.64473      6.69353        -0.596698     -0.297530     -0.958907
O       9.96436      7.70626     10.46331         0.035475      0.572260      1.084508
O       9.94643     11.78152      2.46127        -0.387953     -0.830501     -0.750937
O       9.30979     11.54662     14.65583         1.407444     -0.261295      0.556629
O       9.71831     11.40000      6.16904         0.428724      0.877368      0.605972
O       9.41171     11.50609     10.89764         1.192567      1.159010     -1.114641
