  # total energy = -7881.91120822 
CRSYTAL
PRIMVEC
    15.464    0.0000000000000000    0.0000000000000000
     0.0000000000000000   15.464    0.0000000000000000
     0.0000000000000000    0.0000000000000000   17.350608
PRESSURE
-0.077219 -0.179385 0.18602 0.471694 -0.033362 0.027433
PRIMCOORD
320 1
Pb       3.87405      3.54562      4.27988        -0.160508      1.033927      0.250684
Pb       3.85598      3.75969     17.16789        -0.299126      0.604406      1.141896
Pb       3.94192     15.37950      4.28623        -0.355173     -0.086984      0.143277
Pb       3.87082      0.04483     17.33379        -0.595746     -0.349310     -0.399775
Pb      15.30950      3.83867      4.26151         0.412742      0.386255      0.242171
Pb      15.32071      3.77578      0.01332         0.880082      0.706006      0.372935
Pb      15.33693     15.43394      4.18744         0.852883     -0.021638      1.024738
Pb      15.30523     15.46329     17.30588         0.738593     -0.599359     -0.449802
Pb       3.85967      3.79194      8.55988        -0.097491      0.713916      0.690951
Pb       3.94636     15.45493      8.63059        -0.398167     -0.005326      0.189701
Pb      15.43128      3.96166      8.49752        -0.101572     -0.113024      0.862838
Pb       0.08608      0.13180      8.70316        -0.063630     -0.836293      0.086616
Pb       3.80593      3.92307     13.00742        -0.070742      0.252606     -0.441821
Pb       3.80283      0.09254     12.91673         0.036235     -0.128494      0.568333
Pb      15.23996      3.84114     12.95129         0.922977     -0.248903      0.361158
Pb      15.38858     15.37504     12.94931         0.212512      0.182516      0.048328
Pb       4.00507      7.58878      4.18303        -0.885448      0.316090      0.644830
Pb       3.91279      7.75818      0.06561        -0.322063     -0.287536     -0.343021
Pb       0.06332      7.76925      4.25320        -0.110641     -0.467401      0.804881
Pb       0.03041      7.78601      0.07940         0.068564     -0.634579     -0.008828
Pb       3.70287      7.55310      8.64612         0.233865      0.376464      0.266835
Pb      15.36445      7.83315      8.67947        -0.221991     -0.147375     -0.504155
Pb       3.89853      7.79474     12.95857        -0.368196     -0.631487      0.034053
Pb      15.36372      7.59363     12.93601         0.486739      0.379069      0.746061
Pb       4.07346     11.49716      4.38023        -0.823389      0.129334      0.099943
Pb       3.97018     11.59898     17.30081        -0.401195     -0.028457      0.002460
Pb       0.00193     11.63786      4.32772         0.338285     -0.465740      0.202927
Pb      15.41732     11.60210      0.02792         0.124315      0.174102     -0.042590
Pb       4.03105     11.46733      8.84082        -0.516838      0.679993     -0.243416
Pb       0.06908     11.68927      8.58549        -0.238711     -0.089590      0.367044
Pb       3.82923     11.64990     12.94590         0.222181     -0.515289      0.285114
Pb      15.40630     11.26911     12.98526         0.345863      0.652411      0.192774
Pb       7.71612      3.75073      4.31364        -0.267851      0.585720      0.408755
Pb       7.66545      3.77840     17.26005        -0.106670      0.325937      0.036113
Pb       7.76275     15.39409      4.29360        -0.098127      0.251315      0.488246
Pb       7.67244     15.45773     17.26099        -0.064300     -0.072061     -0.327651
Pb       7.61538      3.81098      8.48984         0.357124      0.041283      0.522674
Pb       7.79198     15.33163      8.67673        -0.406993      0.510590     -0.120619
Pb       7.72308      3.97380     12.97585        -0.348047     -0.105968     -0.024697
Pb       7.63191      0.10888     12.95524         0.095574     -0.357659     -0.150059
Pb       7.80650      7.69405      4.22074         0.023396     -0.175465      0.686208
Pb       7.77291      7.86119      0.02014         0.025875     -0.426708     -0.083419
Pb       7.55484      7.62971      8.58508         0.674820      0.424948      0.349924
Pb       7.85578      7.81407     13.01264         0.027966     -0.238278     -0.184937
Pb       7.77202     11.56742      4.41684         0.246329      0.244604      0.023336
Pb       7.72637     11.66031     17.21036         0.213589     -0.292487      0.605764
Pb       7.93985     11.49384      8.63206        -0.981343      0.330449      0.259397
Pb       7.58993     11.56477     12.83029         0.455219      0.645759      0.332699
Pb      11.42644      3.86035      4.38807         0.582221      0.066829     -0.198190
Pb      11.51327      3.74544     17.25862        -0.193862      0.020136      0.443489
Pb      11.59958      0.03066      4.35125        -0.008497      0.120946     -0.445920
Pb      11.56182     15.27245     17.22584         0.047552      0.794733      0.849287
Pb      11.59969      3.85426      8.72118         0.088943      0.144403     -0.978527
Pb      11.64333      0.00807      8.64574         0.187424     -0.083901     -0.234174
Pb      11.49523      3.87121     12.86694         0.031041     -0.140256      0.722005
Pb      11.45190      0.07704     12.95453        -0.151559     -0.648399     -0.035797
Pb      11.54447      7.67901      4.16164        -0.066454      0.565726      1.321319
Pb      11.48901      7.61511      0.05461         0.748784      0.590538     -0.372986
Pb      11.41355      7.72311      8.57719         0.827469      0.221530     -0.010947
Pb      11.60179      7.51583     12.97110        -0.230000      1.016392      0.432984
Pb      11.63646     11.66035      4.37173        -0.624989     -0.795100     -0.444304
Pb      11.60599     11.64086     17.30049        -0.166982     -0.585230      0.760875
Pb      11.75383     11.72354      8.68190         0.228158     -0.632664     -0.242171
Pb      11.56441     11.48492     12.85470        -0.249482      0.401468      0.607316
Ti       1.87016      1.89257      2.37231         1.281991      0.106688     -1.804109
Ti       1.77903      1.91689     15.31638         0.935477     -0.431850     -0.133753
Ti       1.90897     13.48394      2.33311         0.425678      0.425804     -0.604140
Ti       1.90291     13.45430     15.24105         0.038545      0.992619      0.689525
Ti      13.53393      1.92191      2.24428        -1.197329      0.142575      2.024735
Ti      13.46328      1.93454     15.28602        -0.641590     -0.424248      0.575398
Ti      13.42929     13.50171      2.34832         0.669991      0.165686     -0.772093
Ti      13.52046     13.40580     15.31225         0.091007      0.425997      0.212051
Ti       1.91948      1.93990      6.68877        -0.038252      0.094025     -0.293893
Ti       1.91214     13.49028      6.64301         0.562742      0.200220      0.644493
Ti      13.53841      1.89125      6.63165        -0.722837      0.433044     -0.225524
Ti      13.53923     13.51522      6.52587         0.421531      0.287204      1.010443
Ti       1.88130      1.96439     11.06942        -0.144278      0.650941      0.440778
Ti       1.94229     13.44791     11.12014        -1.658445      0.477230     -1.949304
Ti      13.39992      1.86393     11.01899         0.791229      0.429048     -0.548433
Ti      13.51825     13.41226     11.01865        -0.259254      1.128517     -0.591348
Ti       1.96959      5.70972      2.38625        -0.666568      0.693661      0.164876
Ti       1.94130      5.81308     15.38138        -0.132410      1.244425     -0.343019
Ti      13.51905      5.83083      2.44184         0.501032     -0.018311     -1.344216
Ti      13.54214      5.76277     15.40558        -0.016767      0.737024      0.890478
Ti       1.85630      5.79134      6.56963         0.046753      0.190859     -0.284056
Ti      13.44923      5.80905      6.62600         0.246040      0.383476      0.308912
Ti       1.81958      5.81376     11.00001         1.744139     -1.292260      0.273608
Ti      13.52210      5.71952     10.93536        -0.170821      0.863967     -0.958543
Ti       1.95899      9.67518      2.36159         0.343143     -0.881514      0.752818
Ti       1.93265      9.71416     15.41046         0.416625     -1.689603      0.151846
Ti      13.51529      9.68103      2.48255        -0.821127     -0.083787     -0.520188
Ti      13.55747      9.60394     15.45646        -0.535650      0.359496      0.419381
Ti       2.02694      9.64686      6.68989        -0.399765      0.621732     -0.447682
Ti      13.58255      9.65883      6.59259        -0.316058     -0.181543     -0.315327
Ti       1.90167      9.56555     10.94530         0.155604      0.301375      1.041631
Ti      13.42176      9.54886     11.01422         0.529675      0.015873     -1.830699
Ti       5.83323      1.91125      2.31438        -0.029447      0.206503      0.668555
Ti       5.68970      1.96965     15.21202        -0.131257     -0.637475      1.000876
Ti       5.77149     13.49629      2.28124         0.367953     -0.366820      1.682097
Ti       5.75383     13.51117     15.22610        -0.019805      0.408712      0.903702
Ti       5.84523      1.87539      6.65465         0.146915      0.711277      0.382261
Ti       5.76548     13.52204      6.74994         0.460248      0.001266      0.087370
Ti       5.74509      1.99903     10.93542        -0.371658     -0.264472      0.679659
Ti       5.73155     13.57882     11.00459         0.777584      0.490730      0.327506
Ti       5.86082      5.78961      2.32131        -1.034042     -1.246317     -1.782571
Ti       5.82466      5.89216     15.35546        -0.151735     -0.263782      0.876134
Ti       5.75211      5.85136      6.73104        -0.138947     -1.057467     -1.481230
Ti       5.84930      5.86013     11.02582        -0.856053     -0.976032     -0.201315
Ti       5.84378      9.63450      2.33899         0.324687      0.619513     -0.208125
Ti       5.90107      9.65013     15.33164        -0.948123      0.283896      1.851043
Ti       5.76832      9.73584      6.77121         0.417780     -0.533176      0.530957
Ti       5.79892      9.62244     10.90402        -0.071419      0.089885     -0.255574
Ti       9.72453      1.89696      2.29473        -0.301488      0.181617     -0.415132
Ti       9.58995      1.84692     15.30877        -0.119736     -0.129144      0.098146
Ti       9.58784     13.56801      2.34205         1.638333     -0.871154     -0.893002
Ti       9.64188     13.51797     15.30995        -0.483167     -0.253860     -0.410155
Ti       9.72320      1.93311      6.64607        -0.530925      0.490277      0.854469
Ti       9.68686     13.49887      6.75358        -0.346160      0.282572     -0.031718
Ti       9.54250      1.95834     10.85702        -0.773737      0.107293      0.240694
Ti       9.60202     13.61632     10.85063        -0.107194     -0.013193      0.202743
Ti       9.65019      5.80166      2.23550        -0.015955     -1.283520      0.332864
Ti       9.66431      5.74140     15.35570        -0.863092      0.448159      0.400281
Ti       9.57167      5.81924      6.68790         0.918790     -0.501005     -0.695228
Ti       9.67748      5.80363     10.95779        -1.476150      0.727756      1.072591
Ti       9.58877      9.71417      2.30383         1.725062      0.711776      0.514197
Ti       9.75784      9.71219     15.28992        -0.147261     -0.541718      0.124494
Ti       9.69924      9.67783      6.68773         0.273251     -0.901404     -1.211024
Ti       9.61537      9.71256     10.92599         0.718414     -0.851266      0.435625
O       1.89251      2.00240      0.56380        -0.295435     -0.473115      0.656295
O       1.79904      1.93095     13.53874         0.097136     -0.277539      0.666228
O       2.00267     13.53848      0.53990        -0.491357     -0.169286      1.846472
O       1.88472     13.42200     13.41483         0.056129      0.076312      1.349266
O      13.53170      1.84973      0.53280         0.144276      0.074230     -1.229913
O      13.30366      2.15804     13.56987         0.384408     -0.213014     -0.574092
O      13.47524     13.56776      0.52464         0.318355      0.079278      0.674815
O      13.31578     13.29251     13.58294         0.497832      0.201740     -0.359932
O       1.88804      1.96223      4.93726         0.326028     -0.172658      0.105675
O       1.99892     13.52788      4.90198        -0.084927      0.009073      0.242446
O      13.53122      1.99096      4.85086        -0.182456     -0.049258      0.366103
O      13.54515     13.49084      4.74963        -0.209913     -0.052820      0.804814
O       1.85850      2.10505      9.30486        -0.054389     -0.509238      0.329522
O       1.68022     13.50159      9.27055         0.861512      0.005764      1.837304
O      13.40429      1.88693      9.23964         0.050495     -0.094485      0.406986
O      13.49131     13.55532      9.23004        -0.100312     -0.000175      0.606833
O       1.72355      5.90942      0.67378         0.527802     -0.411969     -1.080572
O       1.93063      6.02996     13.62061         0.082270     -0.574776      0.379124
O      13.45914      6.00010      0.66024         0.042981     -0.182622     -0.122213
O      13.52414      5.72417     13.66582        -0.175072      0.016202     -0.988343
O       1.95054      5.72877      4.80818        -0.119587      0.144647      0.674220
O      13.54234      5.74546      4.85224        -0.385194     -0.121790      0.163047
O       1.85037      5.62141      9.28056         0.165757      0.642003     -0.489330
O      13.50599      5.81372      9.19069        -0.144191     -0.143610      0.329898
O       2.02559      9.59891      0.61546        -0.399204      0.254881     -0.050723
O       1.84596      9.59277     13.64156         0.006857      0.466907     -0.082191
O      13.37879      9.58930      0.71250         0.545383      0.095760      0.148184
O      13.63020      9.80182     13.72076        -0.248419     -0.360700     -1.650443
O       2.23131      9.73277      4.92769        -0.487230     -0.380622      0.734593
O      13.64307      9.82853      4.80252        -0.354836     -0.209930      0.902417
O       1.94311      9.56386      9.23500        -0.210842      0.363574     -0.320714
O      13.53938      9.62543      9.25242        -0.483719     -0.293849      0.639967
O       5.78223      1.94695      0.58203         0.301862     -0.274395     -0.254617
O       5.50880      1.92068     13.47840         0.757130      0.075481      0.426576
O       5.74258     13.40215      0.56219         0.278158      0.276399     -0.328532
O       5.78559     13.45934     13.47331        -0.189522      0.060448     -0.234325
O       5.90709      1.85456      4.91258        -0.547400     -0.026534     -1.121538
O       5.83698     13.53422      5.00351        -0.033384     -0.042263     -0.407683
O       5.65762      1.94742      9.18197         0.198117      0.238591     -0.462099
O       5.78003     13.62063      9.28324        -0.441044      0.012827     -1.097275
O       5.75562      5.82605      0.56577         0.458215     -0.564480      0.226211
O       5.84313      5.92862     13.60535        -0.122863     -0.044205     -0.255093
O       5.93751      5.84477      4.97884        -0.524145      0.300004     -0.180027
O       5.99441      5.76411      9.25096        -0.571919      0.208502     -0.458851
O       5.91285      9.84096      0.60675        -0.071934     -0.321043     -0.179913
O       5.83475      9.69877     13.62389         0.243816     -0.209364     -1.531761
O       5.61662      9.66579      5.04166         0.335974      0.144739     -1.029517
O       5.88040      9.76827      9.13236        -0.141623     -0.521036      0.843006
O       9.60105      1.94069      0.50815         0.013050     -0.269937      0.350278
O       9.48930      1.69814     13.55469         0.473838      0.540149      0.018317
O       9.74330     13.55899      0.55015        -0.517986      0.139076      0.590243
O       9.58114     13.65114     13.56083         0.322691     -0.211593      0.289778
O       9.78982      1.93350      4.87277        -0.012950      0.092883      0.224319
O       9.62848     13.40834      4.99937         0.319789      0.276489     -0.087565
O       9.57333      2.05268      9.09158         0.249985     -0.329715      0.830123
O       9.55917     13.71825      9.02574         0.701025     -0.675808      1.402478
O       9.64028      5.74041      0.47592         0.312242     -0.025071     -0.093874
O       9.59229      5.70231     13.60491         0.047364      0.375854     -0.432344
O       9.58872      5.81127      4.91677         0.083422     -0.119148     -0.678360
O       9.57832      5.85067      9.26179         0.157513     -0.169955     -1.085967
O       9.54165      9.67683      0.54999         0.352022     -0.021457      0.186570
O       9.62408      9.65752     13.50364         0.137224      0.324586      0.508244
O       9.65382      9.69523      4.90812        -0.147887     -0.038744      0.625134
O       9.63224      9.63791      9.17312         0.085615     -0.032731     -0.048724
O       3.85703      1.83647      2.65298         0.925896     -0.143162      0.517871
O       3.79879      1.86463     15.76899         0.330155     -0.037636     -0.417801
O       3.92981     13.65998      2.73654        -0.393333     -0.772322     -0.326624
O       3.84272     13.49553     15.77050        -0.397014     -0.021812     -0.830745
O       0.06836      1.99441      2.72522        -2.406943     -0.441674     -0.192106
O      15.36352      2.07237     15.67531         0.411799     -0.375378      0.119470
O      15.44522     13.47170      2.85248         0.535171     -0.021087     -1.101949
O       0.03042     13.49590     15.75958        -0.447747     -0.111686     -0.349834
O       3.84854      2.09411      7.11327        -0.680952     -1.539678     -0.941564
O       3.90533     13.60715      7.07700        -0.993112     -0.037652      0.108957
O      15.34800      1.90442      7.03571         1.390245      0.311820      0.209611
O      15.45335     13.56672      7.01879        -0.534270     -0.041863     -0.371501
O       3.77119      1.86737     11.48826        -0.732268      0.549306     -0.798316
O       3.80697     13.59743     11.41728        -0.126929     -0.410836     -0.218123
O      15.25615      1.97724     11.54199         1.287611     -0.051008     -0.493747
O      15.31427     13.37359     11.40060         0.757090      0.311634      0.394650
O       3.83788      5.88998      2.57818         0.994074     -0.383885      0.470208
O       3.90481      5.93774     15.82207        -0.541247     -0.515130     -0.437681
O      15.42697      5.81676      2.71244        -0.322984     -0.473251      0.567018
O      15.40209      5.88278     15.69827         0.729647     -0.478431      0.337811
O       3.77030      5.82752      7.03589         0.644320     -0.129862      0.066329
O      15.38090      5.79434      7.06578         0.817880      0.435514     -0.416161
O       3.94073      5.82382     11.39363        -0.844078      0.448212      0.195207
O      15.42403      5.83340     11.33270        -0.587122     -0.513943      0.304560
O       4.01950      9.59015      2.71781        -0.966316     -0.019547     -0.056854
O       3.91300      9.60944     15.75855         0.004804      0.577018     -0.119713
O       0.04246      9.63850      2.87747         0.158884      0.744348     -0.983310
O      15.43341      9.65217     15.90593         0.742005      0.568152     -0.080467
O       3.86287      9.76398      7.30462        -0.272008     -0.513160     -0.452558
O      15.46216      9.67790      7.15398         0.497348      0.036312     -0.631069
O       3.89281      9.55743     11.27836        -0.294938      0.113752      0.124132
O      15.37348      9.54727     11.34674         0.498494      0.526776      0.322132
O       7.80177      2.02180      2.82430        -0.341047     -0.759603     -0.858883
O       7.59916      1.80173     15.61158         0.261015      0.237383      0.210023
O       7.81661     13.51024      2.82221        -1.195385     -0.256691     -0.470796
O       7.74842     13.46731     15.66393        -0.559376      0.417235      0.066192
O       7.71946      2.01388      6.98841         0.526444     -0.193974     -0.145688
O       7.75497     13.45692      7.15700         0.084826      0.162917     -0.344790
O       7.58746      1.94949     11.35143         1.054132      0.294676     -0.054293
O       7.61229     13.56698     11.24878         1.029998     -0.388781      0.448023
O       7.72612      5.60557      2.63894         1.548580      0.287539      0.226769
O       7.70743      5.70213     15.78646         0.279721      0.283004     -0.254162
O       7.69606      5.74617      7.04494        -0.576272      0.438230      0.391382
O       7.72710      5.90162     11.48638         0.280275     -0.709767      0.131288
O       7.79202      9.79673      2.87544        -0.942015     -1.035712     -0.351641
O       7.78613      9.69122     15.85245        -0.565383      0.272182     -0.940025
O       7.70361      9.73089      6.97883         0.192009      0.101065      0.258320
O       7.75643      9.70094     11.39699        -0.705824      0.112600     -0.309461
O      11.59383      1.71198      2.69961         0.836349      0.590127     -0.201820
O      11.58477      1.90395     15.68912        -0.563739      0.029352      0.033601
O      11.63630     13.57502      2.72502        -1.003939      0.028177      0.317066
O      11.59816     13.50051     15.81154        -0.062192     -0.051786     -0.877692
O      11.62267      2.03691      7.08684        -0.462756     -0.451614     -0.062799
O      11.62094     13.59255      7.13479         0.077641     -0.475812     -0.522223
O      11.42056      1.99134     11.38614         0.336377     -0.329906     -0.297053
O      11.41412     13.76225     11.33288         0.933959     -0.490326     -0.263428
O      11.63717      5.85728      2.69804        -1.602093      0.146675      0.064843
O      11.56081      5.82269     15.61294        -0.568229     -0.351121      0.661439
O      11.54316      5.83015      7.13061         0.278891      0.193248     -0.272408
O      11.55967      5.84154     11.42325        -0.199033     -0.836136     -0.439613
O      11.53174      9.60437      2.87159         0.162735      0.171852     -0.520688
O      11.64128      9.80490     15.74298        -1.030563     -0.654039     -0.191248
O      11.62799      9.60083      6.97549        -0.118041     -0.034725      0.196888
O      11.56507      9.50086     11.46732        -0.254820      0.522725     -0.211366
O       1.95337      3.79394      2.76044         0.202332      0.352132      0.105559
O       2.02150      3.85115     15.69183        -0.591768      0.598988     -0.244803
O       1.90517     15.42829      2.82882        -0.167724     -0.266014     -0.494338
O       1.86293     15.45992     15.82795        -0.154391     -0.017212     -0.788360
O      13.37947      3.83621      2.57068         0.668226     -0.401751      0.241674
O      13.48360      3.88142     15.95571        -0.224760      0.009348     -0.788569
O      13.53984     15.44531      2.76551         0.390033      0.353648     -0.513830
O      13.58703     15.44637     15.55162        -0.099620      0.115741      0.184855
O       1.85496      3.93471      7.03450        -0.007145     -0.876801     -0.116700
O       1.92083      0.06653      7.24009         0.068337     -0.038338     -0.691441
O      13.48876      3.93851      7.12783        -0.227911     -0.691150     -0.486667
O      13.46120     15.43021      6.91529        -0.027624      0.153454      0.085338
O       1.91231      3.90738     11.55544        -0.261782     -0.411207     -0.235672
O       1.79229     15.43214     11.42398        -0.241300      0.258519     -0.164368
O      13.45554      3.88424     11.38198        -0.475210     -0.277228     -0.054858
O      13.56266      0.05502     11.48829        -0.910324     -0.947107     -0.217091
O       1.86543      7.69019      2.84272         0.769683      0.831750     -0.393363
O       1.94825      7.79759     15.76726        -0.278185     -0.495421      0.524859
O      13.53831      7.81923      2.94556         0.155269     -1.004691     -0.515325
O      13.47522      7.79544     15.75721        -0.239889     -1.542754      0.088376
O       1.96281      7.77016      7.12765        -0.338388     -0.585691     -0.455003
O      13.59489      7.78416      7.06651        -0.410429     -0.572661     -0.315266
O       1.85890      7.68232     11.32886         0.295290      0.693151      0.216493
O      13.47038      7.60454     11.38658        -0.025976      0.739758      0.426802
O       1.99135     11.52633      2.77515         0.109682      1.048432     -0.400639
O       1.87487     11.60919     15.83463         0.262809      0.051123     -0.559535
O      13.43878     11.61055      2.70896         0.463264      0.098193      0.070206
O      13.53811     11.58121     15.87988         0.369006      0.500343     -0.039796
O       1.88612     11.61461      7.08934         0.312514      0.206727     -0.213205
O      13.50862     11.57213      7.04882        -0.117588      1.037886     -0.172662
O       2.02064     11.51753     11.48633        -0.567083     -0.194042     -0.742747
O      13.33628     11.54980     11.21102        -0.210551     -0.309383      0.603304
O       5.78750      3.84895      2.76226        -0.243651     -0.911626      0.084448
O       5.71879      3.84322     15.74606         0.249929     -0.057391     -0.728449
O       5.94181     15.39422      2.77765        -0.147584      0.644026     -0.566678
O       5.75175     15.38790     15.76844         0.012099      0.291298     -0.414181
O       5.73215      3.82397      6.88971         0.186152      0.980900      0.811582
O       5.85145      0.02677      7.09905        -0.350863     -0.497702      0.098777
O       5.64316      3.83692     11.41635         0.664665      0.765492      0.056803
O       5.73079      0.08605     11.39388        -0.343310     -0.974333     -0.039890
O       5.95351      7.65377      2.51270         0.218105      1.536246      1.063003
O       5.87887      7.76376     15.92876         0.091441      0.242063     -0.919273
O       5.71956      7.77642      7.08585         0.086044     -0.560050      0.270860
O       5.84488      7.72725     11.32209         0.144821      1.140938      0.121114
O       5.87291     11.57715      2.87786        -0.218170      0.481852     -0.617288
O       5.77111     11.64317     15.71274         0.297214     -0.718494     -0.180626
O       5.74832     11.64003      7.23162         0.117077     -0.067517     -0.478234
O       5.69414     11.55331     11.30071         0.062739      0.168998      0.309097
O       9.93084      3.78076      2.63866        -0.786610      0.938440     -0.001049
O       9.51434      3.70301     15.63476         0.651423      1.381213      0.166528
O       9.69832     15.44686      2.76460        -0.499338     -0.293139      0.064314
O       9.60846     15.43372     15.79418         0.243315     -0.364579     -0.083779
O       9.69583      3.94554      7.05626        -0.122490     -1.014727     -0.010492
O       9.62330      0.06241      7.08723         0.345548     -0.282507     -0.538257
O       9.46649      3.88101     11.40548         0.718021     -0.140704     -0.333534
O       9.44749      0.05277     11.32302         0.296972      0.269568     -0.386907
O       9.59723      7.67685      2.57489        -0.173770     -0.001365      0.194854
O       9.59079      7.78694     15.70915         0.359955     -0.861372     -0.128747
O       9.56725      7.69907      7.03069         0.037997      0.785910      0.338639
O       9.59945      7.77952     11.34065         0.197706     -0.651686      0.263831
O       9.75651     11.57733      2.71602        -0.181724      0.835928      0.067669
O       9.68071     11.56592     15.76504        -0.070904      0.838056     -0.500583
O       9.79156     11.52407      7.18754        -0.253195      1.165715     -0.362795
O       9.73487     11.67827     11.22539        -0.400242     -0.371810     -0.080245
