  # total energy = -7832.54250765 
CRSYTAL
PRIMVEC
    15.6080000000000005    0.0000000000000000    0.0000000000000000
     0.0000000000000000   15.6080000000000005    0.0000000000000000
     0.0000000000000000    0.0000000000000000   16.6239999999999988
PRESSURE
4.50782 4.62662 0.690316 0.019915 0.278598 0.314126
PRIMCOORD
320 1
Pb       4.33394      4.08761      4.30410        -1.710331     -1.472155     -0.966455
Pb       4.15885      3.68702      0.05738        -0.968986      1.102576      0.382743
Pb       4.34541      0.12077      4.25051        -1.154900     -0.142059     -0.236519
Pb       3.94017      0.18026      0.55055        -1.952230     -1.237256     -2.154263
Pb       0.51431      4.01217      4.24268        -2.404176     -0.677048      0.148468
Pb       0.08774      3.92273      0.34460        -0.465735     -0.193254     -0.809852
Pb      15.36443      0.04986      4.22217        -0.180588     -0.146205     -0.044135
Pb       0.08389      0.07380      0.10002         0.853339     -0.323506     -0.252156
Pb       4.02754      3.68222      8.20734        -0.308329      0.266143      0.246490
Pb       3.96653      0.00786      8.91817        -1.038150      0.930402     -2.691527
Pb      15.48497      3.72948      8.24474         0.199713      0.965522      0.330466
Pb      15.08139     15.44602      7.99892         0.574222      0.659778      0.178835
Pb       3.66338      3.84400     12.25472         0.962920     -0.389712      0.434435
Pb       3.75304      0.51085     12.41943        -0.556379     -1.706332     -0.481431
Pb       0.28916      3.86272     12.53992        -0.935228     -0.327427      0.672921
Pb      15.13965     15.30887     11.86845         1.430062      0.365296      1.609484
Pb       3.93234      8.31193      4.19646        -0.987800     -1.270120     -0.842566
Pb       3.97427      8.00402      0.08886         0.218252     -0.800874     -0.172082
Pb       0.25714      7.61282      4.19181        -1.315142      1.123620      0.256773
Pb       0.18695      8.27773     16.52104        -1.876627     -2.274599      0.235466
Pb       4.22508      7.89115      8.94951        -1.070481      0.175339     -2.221703
Pb       0.04266      7.80700      8.71025         0.127074     -1.236038     -1.731713
Pb       3.76638      7.39628     12.94381         0.374762      0.632584     -0.594843
Pb       0.03572      7.48897     12.65411        -0.297336     -0.308661     -0.016142
Pb       3.58855     12.15651      4.88357         0.758957     -1.795277     -2.095470
Pb       3.29365     12.00618      0.48333         1.484649     -0.278043     -1.841406
Pb       0.23718     11.62489      4.24675        -1.433030     -0.224579      0.099842
Pb      15.37539     11.71615     16.30811         0.403765     -0.354567      0.797521
Pb       3.65886     11.49436      8.50102        -0.000035      0.252928     -0.825688
Pb      15.34155     11.56278      8.21716         0.740371     -0.788711     -0.686348
Pb       4.45044     11.85850     12.63003        -1.171030      0.672323     -0.235888
Pb      15.12430     11.87109     12.47120         1.568507      0.022666      0.982290
Pb       8.12746      3.98250      3.58183        -1.213379      0.336830      0.499665
Pb       7.78620      3.96414     16.42617         0.443813     -0.443276      0.673442
Pb       8.50009     15.58473      4.13379        -1.979807      0.158322     -0.287795
Pb       7.59702     15.24649     16.57773        -0.135932      1.477363     -0.135135
Pb       7.47246      4.05196      7.99114         0.187710     -0.900134      1.093559
Pb       7.64300      0.03235      8.42110         0.792767      0.368320     -0.888326
Pb       7.95266      3.91796     12.46870        -0.386697     -0.239898     -0.040699
Pb       8.21007      0.29607     12.91577        -2.976698     -2.365714     -1.268426
Pb       7.48071      7.88360      4.06679         1.297006      0.197304     -0.765505
Pb       7.55551      7.91227      0.29773        -0.938700      0.102463     -0.414957
Pb       7.70702      8.10505      8.32014         0.004735     -1.024828      0.168855
Pb       7.63264      8.01045     12.65150         0.024492     -0.021795     -0.114210
Pb       7.64763     11.87900      4.04355        -0.126559     -0.510695      0.145244
Pb       8.01378     12.11410      0.01912        -1.820850     -1.590602     -1.149021
Pb       7.59892     11.37969      8.01307        -0.353567      0.754299      0.772138
Pb       8.01112     11.42587     12.87705        -0.200561      1.485051     -0.297253
Pb      11.29952      3.65582      3.87811         3.120299      1.667641      1.070541
Pb      11.91601      3.72226     16.54160         0.775250      0.527758      0.372815
Pb      11.74414     15.20834      4.40435         0.527058      0.633105     -0.368948
Pb      12.27466     15.59653      0.42608        -0.916178      0.093299      0.122662
Pb      11.56178      4.10709      8.68247         0.284531      0.158173     -1.468026
Pb      11.60459      0.40473      8.13082         0.073944     -1.430844     -0.751573
Pb      11.54183      3.30868     12.53066         0.563096      1.709522     -0.341811
Pb      11.45800     15.10321     12.21866         0.418621      0.266523     -0.931363
Pb      11.05655      7.48870      4.24072         1.756940      0.246285     -0.153825
Pb      12.09085      7.91216      0.05199         1.308316      0.231723      0.980874
Pb      12.06575      7.48521      9.03284        -1.376192      0.184770     -2.060426
Pb      11.52117      7.63086     12.79841        -0.191579     -0.395694     -0.825800
Pb      11.29479     11.40476      3.93852         1.786226      0.190390     -0.216377
Pb      11.94378     11.41431     16.21094        -0.264598      0.827399      1.152115
Pb      11.07621     11.66353      8.29469         1.141057     -1.378264     -0.357949
Pb      11.65485     11.52254     12.30264        -0.208676      0.829891      0.547905
Ti       1.87507      1.94970      2.33948         0.823880      2.318132     -0.824201
Ti       2.09237      1.97021     14.72127        -1.800162     -1.350013     -0.938521
Ti       1.79309     13.64820      2.48818         0.273098      0.877774     -1.831378
Ti       1.77502     13.68749     14.59724         0.358821     -0.749360     -1.452345
Ti      13.54033      1.88687      2.37445         1.723357      1.428864     -0.876045
Ti      13.71018      1.78929     14.29811         2.008770      1.261173      0.507549
Ti      13.67918     13.34379      2.23878        -0.257589     -1.182149      0.726687
Ti      13.52494     13.83531     14.73760         0.246136     -5.047506     -1.292487
Ti       2.06452      1.95334      6.23649         0.937089     -0.237754      0.990845
Ti       1.67543     13.79712      6.50488         0.330779     -1.054912      0.877303
Ti      13.56963      2.31337      6.20655        -1.279012     -2.525707     -0.556286
Ti      13.39728     13.31114      6.16681         1.090872     -0.129486     -1.190326
Ti       1.67608      1.74197     10.27134         0.667774      0.206067      0.239773
Ti       1.98814     13.37603     10.39924         0.685327      1.788112     -1.276023
Ti      13.45627      1.82993     10.31373         0.073370      0.591824     -0.861048
Ti      13.46001     13.32762      9.96173        -0.805327      1.038983      1.871374
Ti       2.12352      5.95431      2.23683         0.334769     -1.262409     -2.357855
Ti       1.95916      5.77929     14.85350        -0.609688     -0.166701      1.235394
Ti      13.83679      5.79687      2.02352        -1.374263      0.483306     -0.018460
Ti      13.78044      5.69930     14.58505         0.510186     -0.818687      0.943985
Ti       1.85116      5.80736      6.24117         0.522736      1.557588      1.755065
Ti      13.60652      5.83311      6.05699        -0.023925      1.422803     -0.376575
Ti       1.94071      5.92451     10.49000        -1.197401     -2.536103     -2.331764
Ti      13.64261      5.45838     10.70926         0.279408      0.285564      0.728269
Ti       1.82716      9.77028      2.07711         0.374699      0.457273      0.910270
Ti       1.96218      9.72270     14.30455        -1.131294      1.863434      1.958285
Ti      13.88809      9.55811      2.42807        -3.360737      0.012595     -1.913121
Ti      13.69137      9.54764     14.27444         1.961991      0.779544      2.760810
Ti       1.85378      9.62511      6.28064        -1.632111     -0.623744      1.083574
Ti      13.52955      9.56951      6.19308        -0.232248     -1.192880     -0.136499
Ti       2.10043      9.56761     10.52225        -0.937799      1.265421     -0.731073
Ti      13.75786      9.56656     10.42736         0.518291      0.371442     -0.056267
Ti       5.76110      2.00375      2.10745         2.073270     -0.051749     -0.347123
Ti       5.81148      2.12959     14.24687         2.021100     -1.364043      2.090062
Ti       5.89043     13.65970      2.18965        -1.371671      0.343815     -1.498971
Ti       5.51848     14.09821     14.28714         2.358160     -2.757680     -0.085041
Ti       5.94214      1.78566      6.26073         0.627469      1.326758     -0.839552
Ti       5.75815     13.75999      6.27709         0.078083      0.079324      0.164917
Ti       6.04465      2.01483     10.47324        -1.646463      0.294510      0.241450
Ti       6.03429     13.73729     10.13908        -1.883682      0.645637      2.105976
Ti       5.87118      5.93488      2.12497         0.272835     -0.387338     -2.279329
Ti       5.92677      5.76393     14.48996        -0.835775      1.052534      1.103666
Ti       5.62844      5.98185      5.94555         0.354093      1.242162      4.047262
Ti       5.78208      5.95080     10.53239        -0.239121     -1.884634     -0.515296
Ti       5.70596     10.00611      2.16187         0.862807     -1.280994     -0.785715
Ti       5.67694      9.93119     14.64726         1.941564     -0.412224      0.380693
Ti       5.68407      9.75654      6.06375         0.112769      0.589929      0.963997
Ti       5.89498      9.98545     10.51722         0.824301     -0.651018      0.098230
Ti       9.74760      1.84579      1.84999        -0.333003     -0.786599     -0.098172
Ti       9.94214      1.87014     14.71377        -0.494076     -0.033577      1.779497
Ti       9.86156     13.62258      1.77602         1.653002      2.023975      0.751839
Ti       9.84048     13.61250     14.43063        -0.050403     -1.393365      0.188830
Ti       9.70243      1.95843      6.11926         1.024342     -0.562510      2.025134
Ti       9.55816     13.35449      6.10671         0.999243      1.493089      1.522669
Ti       9.60820      2.03157     10.06038         0.245157     -1.378870      1.177547
Ti       9.56278     13.48430     10.17155         2.420287      0.516181      1.478516
Ti       9.92872      6.06439      1.75839        -1.267315     -1.768717      2.015808
Ti       9.82052      5.71364     14.43386         0.759429     -0.259307      0.623136
Ti       9.63325      5.64928      6.54977         1.493607      0.218960     -0.589968
Ti       9.48035      5.86789     10.52852         3.444722      0.988785     -0.887049
Ti       9.68440      9.68667      1.88065         0.204801      0.254307      1.455250
Ti       9.59434      9.56430     14.84150        -0.896603      1.390286     -0.956729
Ti       9.62349      9.50080      6.09951         1.559785      3.448373      0.460371
Ti       9.82371      9.73088     10.58296        -1.534131     -1.454738     -0.370180
O       2.14148      2.30307      0.34454        -0.376497     -1.195791      0.182619
O       1.79372      1.81467     12.82827         1.107250      0.721682      1.199941
O       1.73748     13.68336      0.49089         0.658757     -0.128613      0.903360
O       1.66235     13.53231     12.73012         0.362946      0.539436     -0.328603
O      14.01224      1.71936      0.49939        -0.907556     -0.104800     -0.416474
O      13.45410      1.87024     12.49269        -0.123242     -1.184367      1.040846
O      13.59307     13.60890      0.44100         0.573308      0.338263     -2.021421
O      13.63309     13.58736     12.86241        -0.528059      0.254069      0.031686
O       1.98836      1.91709      4.46558         0.053089     -0.361308      0.409346
O       1.97232     13.87436      4.46509        -0.462033     -0.911403     -0.428816
O      13.56902      2.02193      4.33084         0.017215     -0.126702      0.874915
O      13.73677     13.36805      4.25675        -0.977364      0.492799      2.023962
O       1.73101      1.82139      8.44838         0.259689      0.491355      0.617994
O       1.94008     13.72810      8.43978        -1.028049     -0.709359      1.376024
O      13.22083      2.12316      8.37239         1.606316     -0.242001      1.122430
O      13.54912     13.39585      8.21582        -1.289303     -0.505855     -0.423612
O       1.94424      6.02198      0.33858         0.036496     -1.057003      0.368280
O       1.89365      5.93479     12.97731         0.872287     -0.280022     -1.916444
O      13.92969      5.89470      0.15429        -1.192129     -0.242819      0.174681
O      13.78993      5.65656     12.72323        -0.316724      0.427505      0.034297
O       1.83027      5.96215      4.35360         0.157660     -0.438907     -0.834916
O      13.71509      5.80504      4.19067        -0.231261      0.515237      3.042633
O       1.94554      5.76669      8.62032         0.500081     -0.202428      1.615642
O      13.77142      5.76195      8.95761        -0.499786     -0.825681     -1.192919
O       1.57005     10.03547      0.26769         1.592060     -0.423400      1.245266
O       1.96058      9.75933     12.56364         0.379721     -0.295917     -0.607682
O      13.83297      9.64998      0.53020        -0.107425      0.353526     -2.370164
O      13.74854      9.93720     12.62218        -0.590190     -1.018469     -3.225214
O       1.97655      9.58371      4.39375        -0.156837      0.270482      0.879870
O      13.45259      9.45713      4.38273         0.058988      0.126262      0.575958
O       2.07852      9.35167      8.48611         0.399459      1.216315      0.354696
O      13.92373      9.36895      8.62430        -1.826903      2.119843     -0.577887
O       5.63697      1.81893      0.25091         0.082259      1.490716      0.678481
O       5.97328      2.12778     12.45658        -0.825397     -0.180452      2.038416
O       6.00564     13.60268      0.12928        -0.067450      0.342230      1.097168
O       5.62314     14.01756     12.41494         0.177845     -1.285866      1.011046
O       6.04054      1.69037      4.40760        -0.338573      0.680101     -0.508587
O       5.83327     13.86190      4.27898         0.505589     -0.115708      0.377573
O       5.96584      1.95415      8.68646         0.251488      0.215951     -1.992324
O       5.92189     13.92048      8.30457         0.567755     -1.163718      0.135540
O       5.90353      5.89124      0.28813         0.137983     -0.046248     -1.247522
O       5.65984      5.46565     12.74322         0.960832      1.285484      0.236743
O       5.88310      6.18534      4.22179        -0.000239     -1.252024     -0.590104
O       5.39474      5.82951      8.71858         1.071688     -0.025344      1.024907
O       5.80492      9.76162      0.38985        -0.243200     -0.099867     -1.891965
O       5.84794      9.86027     12.67677         0.152464     -0.002067     -0.044932
O       5.97706      9.63462      4.22941        -0.637741      0.037765     -0.086784
O       5.78554      9.79245      8.48305        -0.055452     -0.027274      0.925581
O       9.89282      2.11056      0.10058        -0.032903     -0.870379     -1.207534
O       9.64694      1.80538     12.95107         2.241068      2.215392     -2.740312
O       9.73118     13.83103      0.00072         0.355147      0.197952      0.070370
O       9.86024     13.24789     12.41065        -0.132004      1.384301      1.858929
O       9.93038      1.92126      4.31800        -1.202673      0.094873     -1.684339
O       9.62793     13.50525      4.29384         0.771405     -0.725525     -0.597672
O       9.71891      1.77944      8.29188        -0.745158      0.789605      1.656792
O       9.73898     13.61667      8.37132        -0.214027     -0.475621     -0.602386
O       9.80450      5.71572      0.11047         0.285136      0.269760     -3.042834
O       9.68846      5.88688     12.64174         0.348132     -0.527454     -0.168504
O       9.68013      5.58633      4.69956        -0.143158      0.606440     -0.998397
O       9.67845      5.90780      8.68634        -0.749825      0.013292     -0.800959
O       9.72841      9.18900      0.21277         0.446940      1.484026     -2.640312
O       9.70875      9.87861     12.77636         0.078492     -1.099948     -0.245737
O       9.61257      9.90446      4.29442        -0.508628     -0.836679     -0.655678
O       9.56171      9.49177      8.78701        -0.430277      0.530656     -1.922734
O       4.02554      2.30316      2.52963        -0.241897     -1.096322     -0.212926
O       4.06981      1.92120     14.53966        -1.704239      0.881632      0.312065
O       4.07625     13.43854      2.19524        -0.715002      1.060405      0.258812
O       3.89902     13.62769     14.63862        -1.675557      0.108894      0.021723
O       0.07129      1.85521      2.50336        -0.469329      0.162908      0.185300
O      15.51541      2.04524     14.52589         0.568191     -0.802549      0.856185
O      15.60260     13.68151      2.51712         1.237826      1.056533      0.298275
O      15.50684     13.66325     15.02029         0.600964      0.676114     -0.599914
O       4.07110      1.74562      6.61729        -3.418782      0.953314     -0.556094
O       3.89727     13.63923      6.48479         0.011918      0.296995      0.056369
O      15.51556      2.14701      6.49362        -0.087815     -0.138193     -0.389541
O      15.32071     13.54662      6.56902         2.307299      0.506456     -0.540197
O       3.70795      1.73060     10.45449         0.086545      1.860729      0.674959
O       3.89284     13.73874     10.04921        -1.902267     -2.299073      2.217527
O      15.33516      1.53048     10.44920         1.768416      1.174486     -0.628591
O      15.25776     13.70422     10.23156         2.078094     -0.067581      0.548853
O       3.97300      6.03964      2.18042        -1.321355     -1.227052      0.894720
O       3.97610      6.07126     14.81305         0.368641     -0.517481      0.224348
O      15.57046      5.47739      2.24550         1.801432      0.611305      0.741711
O       0.10417      5.84045     14.62761        -0.522930     -1.054756      0.595831
O       3.71431      6.00368      6.07278         2.661385      0.194526      0.297332
O       0.00808      5.45546      6.58834        -1.248682     -0.388254     -0.789483
O       3.78357      5.75733     11.06931         0.280120      1.513298     -1.249515
O      15.58080      5.84550     10.79918         1.263534     -0.211011      0.379457
O       3.86263      9.94931      2.25164        -1.170262     -1.079588      0.230235
O       3.90925      9.80585     14.97080        -1.873972     -0.271138     -0.782888
O       0.05195      9.69961      2.67847         3.198768     -0.582988      0.262294
O      15.60245      9.85293     14.57453         1.485588     -0.426491      0.312555
O       3.89192      9.81617      6.24129        -1.785322     -0.516829      0.248714
O      15.58161      9.78198      6.35274         0.803787     -0.038011     -0.037530
O       4.02544      9.67043     10.64297        -2.498587      0.491230     -0.267110
O      15.59120      9.45993     10.36800         1.398287      1.187391      1.802674
O       7.87246      1.74692      2.00696         0.531056      0.776699      0.727865
O       7.93692      2.01913     14.76841        -0.541010     -0.190264     -0.133313
O       7.97586     13.56080      2.03417        -1.856927      1.263139      1.040425
O       8.02591     13.64778     14.75415        -0.928599      0.371171     -0.654078
O       7.82043      1.75383      6.51557        -0.585809      0.507034     -0.102219
O       7.83711     13.76905      6.22022        -1.770726     -0.130132      0.602604
O       7.77215      1.67333     10.86811         2.313851      0.628461     -1.395629
O       7.85141     13.88466     10.26190        -2.170350      0.097377      0.523115
O       7.87407      5.89874      2.07645         0.739895     -0.649840      1.211214
O       7.83103      5.59735     14.45784         0.057040      0.121622      0.992121
O       7.52657      5.68751      6.58848         0.211449      1.561580     -0.928376
O       7.74554      5.90200     10.64990        -3.193478      0.458053      0.540766
O       7.71839      9.73644      2.13094         2.024861     -0.051087      0.327040
O       7.72609      9.81219     14.94859         1.736406     -0.301543     -0.561325
O       7.46649      9.63808      6.45008         3.630086     -0.100518      0.557464
O       7.68024      9.83273     10.60718         0.083137     -0.768717      0.554811
O      11.80743      1.87441      2.00602        -2.044112     -0.018468      0.299629
O      11.87761      2.11453     14.72657        -0.299691     -1.108386      0.374012
O      11.76107     13.35903      2.27749        -0.348704      0.137945      0.492735
O      11.67027     13.42232     14.87878         1.238935      0.651363     -0.105640
O      11.55342      2.22266      6.42562         0.857149     -1.171433     -0.362320
O      11.55289     13.49364      6.22463        -0.031733     -1.137289      0.002708
O      11.47277      2.26792     10.43548        -0.491447     -1.109531     -0.102126
O      11.64039     13.34084     10.54024         0.300397     -0.001355     -0.530769
O      11.64626      6.22717      2.44060        -0.023859     -1.177353     -1.300431
O      11.80478      5.82705     14.52906        -0.790695      0.900646      0.380213
O      11.56844      5.74023      6.67432         0.517110      1.035553     -0.601592
O      11.60945      5.63769     10.54391         0.980191     -0.074623      0.973651
O      11.84598      9.47629      2.07186        -2.917882      1.179927      1.007025
O      11.94715      9.59182     14.79538        -2.426619     -0.984725      0.081967
O      11.52808      9.86079      6.41510        -0.046520     -0.433641     -0.216526
O      11.61706      9.92320     10.44054         1.408915     -0.048169      0.535657
O       1.95855      3.89553      2.62535         1.210196      1.353547     -0.908425
O       2.13406      3.90474     14.83348         0.066623     -0.711369     -0.057621
O       2.18094      0.23735      2.31915         0.382292     -3.547484      0.127979
O       2.17312      0.03434     15.18806        -1.298666      0.616897     -1.109938
O      13.36736      3.85982      2.12761         0.593628      0.502696     -0.044695
O      13.82902      3.87478     15.12409        -0.660607     -0.090462     -1.113758
O      13.54140     15.50124      2.49299         0.350969     -0.174228      0.188891
O      13.77043     15.50154     14.76528        -0.515955      4.303577      0.246990
O       2.45945      3.91791      6.23623        -1.555216     -1.796928      0.453096
O       1.67569     15.50185      6.44408        -0.092389      2.859523      0.006922
O      13.37419      4.01648      6.46439         1.065580      1.039453      0.171307
O      13.34186     15.53539      6.41187         0.634690     -0.086639     -0.552883
O       1.90663      3.83607     10.90615        -0.794191     -0.381911     -1.564053
O       1.96504      0.00282     10.94128        -0.934886     -1.260578     -1.605154
O      13.80511      3.55670     10.86487        -0.050708      3.051006     -0.869522
O      13.36477     15.60597     10.32130        -1.048480     -1.746068     -0.038930
O       1.99022      7.83579      2.31168        -0.340263      0.696733      0.043691
O       1.79988      7.71193     14.85708         1.403255      3.453346     -0.904199
O      13.95186      7.76588      2.03583         0.168617     -1.713707      1.205941
O      14.06211      7.73736     14.69062        -1.527819      0.315559     -0.435011
O       1.39531      7.61965      6.41505         1.498322      1.054236     -0.333481
O      13.82298      7.73802      6.78872        -0.881295     -1.456935     -2.024491
O       1.87794      7.77737     10.58982         0.869678     -1.022595      0.891226
O      13.59983      7.72992     10.65583        -0.477225     -0.126628      1.624451
O       1.99526     11.71899      2.38421        -1.031020      0.461901      0.965837
O       1.85653     11.77091     14.74595         0.377404     -0.426644      0.185141
O      14.24940     11.50874      2.23887        -1.800823      2.077485      0.735011
O      13.64647     11.62552     14.68735         0.196315     -0.221210      0.322812
O       1.92001     11.65560      6.50445        -0.036674     -0.157706      0.061536
O      13.83630     11.45989      6.25962        -1.440096      1.131565      0.700897
O       1.87670     11.49319     10.19663         0.275594      2.046947      0.710748
O      13.76343     11.63655     10.66869        -0.725837     -0.551129     -1.357877
O       5.98308      3.97858      2.25272         0.201896     -0.902558      0.570709
O       5.94351      3.84812     15.06370        -0.667787      0.550458     -1.326993
O       5.60808      0.03919      1.95203         1.608755     -0.791516      2.824663
O       5.89394      0.16206     14.69419         0.561996      1.323922     -0.026879
O       5.67133      3.77699      6.34545         0.113899      1.235664      0.294720
O       5.60887      0.02907      6.47565         1.405534     -2.514417     -0.228298
O       5.73974      3.93395     10.56760         0.426411     -0.049729      0.042715
O       5.65985      0.07866     10.41062         1.162887     -1.171140      0.182412
O       5.80093      7.75963      2.16936         0.754897      2.224877      0.615180
O       5.95818      7.93025     14.64647        -0.059256     -1.425875     -0.238288
O       5.69407      7.81168      6.43240         0.120963     -0.976735     -0.557909
O       5.84632      7.92484     10.68220         0.049716     -2.049936     -0.075488
O       5.96136     11.74137      2.49663         0.269113      1.340118     -0.242980
O       5.99197     11.74949     14.42329        -0.885982      0.491282      0.138695
O       5.74998     11.68900      6.04867         1.003169      1.002426      0.921089
O       5.76225     11.88633     10.41018         0.194914     -0.226694      0.333167
O       9.92540      3.78985      2.11981        -0.924200      0.857327      0.205229
O      10.09358      3.81459     14.45371        -1.528202      1.021630      0.997148
O      10.09098     15.59736      2.31379        -0.765556     -0.332502     -0.269469
O      10.05325     15.44128     14.38178        -0.157921      1.290385      0.614358
O       9.64632      3.80381      6.58863        -1.334567      1.143250      0.465236
O       9.86449      0.01989      6.16155        -0.037250     -0.765191     -0.081867
O       9.38056      3.91591     10.56218         0.458618     -1.592677     -0.217828
O       9.91050     15.54530     10.49932        -0.250468      0.601488      0.074331
O       9.54760      7.80908      2.16912         0.301476      0.592170      1.284603
O       9.59171      7.75627     14.53223         0.749904     -0.530949     -0.086904
O       9.60543      7.81851      6.26517        -0.920584     -2.889222      0.841860
O       9.86121      7.80096     10.88083        -0.312588     -0.290734      0.044597
O       9.68794     11.87165      1.68671         1.007248     -4.994097      1.506626
O       9.85034     11.55574     14.71016        -0.183710     -0.379968      0.797237
O       9.40867     11.47769      6.51363         0.423232      1.358954     -0.049275
O       9.41497     11.58721     10.45747         0.854624      1.486327     -0.621438
