  # total energy = -7840.01181415 
CRSYTAL
PRIMVEC
    15.6080000000000005    0.0000000000000000    0.0000000000000000
     0.0000000000000000   15.6080000000000005    0.0000000000000000
     0.0000000000000000    0.0000000000000000   16.6239999999999988
PRESSURE
2.43065 2.42293 -3.32629 0.077198 0.413913 0.160816
PRIMCOORD
320 1
Pb       4.21918      4.08171      4.29660        -1.166073      0.053362     -1.044513
Pb       4.03519      3.98854      0.10025        -1.029402     -0.396593      1.370264
Pb       4.21125      0.15374      4.42407        -1.128315     -0.145032     -1.012969
Pb       3.73315     15.57272      0.35445         0.526674     -0.514018     -0.390511
Pb       0.35918      4.04043      4.31920        -0.176827     -0.180203     -1.130317
Pb       0.05291      3.85034      0.33630         0.865297      0.020100     -0.805658
Pb      15.30004     15.56682      4.47383         1.149772      0.187859     -1.428694
Pb       0.28112     15.54582      0.05645        -0.492030      0.343567      0.183327
Pb       3.90516      3.68346      8.24395         0.796118     -0.435193      0.804271
Pb       3.83903      0.01480      8.68161         0.548700      0.210794     -0.764621
Pb      15.38078      3.95201      8.14685         0.412521     -0.031046     -0.244518
Pb      15.03142     15.51468      7.86972         2.441442      0.658554      1.746431
Pb       3.88466      3.92277     12.36111         0.649155      0.233977     -0.934210
Pb       3.71525      0.25923     12.47189         0.243626     -0.096843     -0.396804
Pb       0.17388      3.72620     12.74888        -0.132436     -0.416411     -0.301579
Pb      15.36494     15.40945     12.10025         1.370524      1.876442      0.102470
Pb       3.75637      8.09574      4.25410        -0.099896     -0.594108     -0.793617
Pb       3.74496      8.05217      0.14121        -0.293861     -0.626241     -0.291973
Pb       0.08562      7.75358      4.16545         0.825914      0.130951      0.306023
Pb       0.18401      8.04315      0.05475         0.119219     -0.128850     -0.618729
Pb       3.99676      7.84909      8.88466         1.033707     -0.028008     -0.100201
Pb       0.06671      7.62877      8.65090        -0.500160      0.605361     -0.684056
Pb       3.74346      7.49254     12.93926         0.930154      0.686146     -1.166565
Pb       0.17011      7.36589     12.82963         0.393889      0.495201     -0.654475
Pb       3.62065     12.04731      4.75427         1.397120     -0.150553     -1.364061
Pb       3.43571     11.92935      0.24885         0.389147      0.908489     -0.581394
Pb      15.59797     11.64714      4.63780         0.675819     -0.308579     -1.345285
Pb      15.51956     11.88426     16.47490         0.605781     -0.478846     -0.018414
Pb       3.64181     11.61863      8.64284         1.198725     -0.432249     -0.249140
Pb      15.36534     11.32814      8.15582         0.242682      0.088668      0.535059
Pb       3.92619     11.87386     12.69663        -0.146187     -0.466039     -0.071896
Pb      15.26367     11.89541     12.42082         0.322366     -1.737113     -0.171611
Pb       7.77694      4.10441      3.93550         0.151645     -0.871596     -0.137466
Pb       7.80799      3.76564     16.50798        -0.566054      0.030879      0.550933
Pb       8.12301     15.57368      4.08840        -0.290351      1.845750      0.185353
Pb       7.62678     15.58575     16.59216        -0.412815      0.518167      1.191754
Pb       7.66243      4.02295      8.38453        -0.426960     -1.341114      0.253203
Pb       7.70892      0.02036      8.33675        -0.086361      1.879958      0.420196
Pb       7.99414      3.93866     12.57366        -0.152746     -1.079558     -0.614954
Pb       7.81671     15.56354     12.94525         0.597238      1.152349     -1.981482
Pb       7.64480      7.76310      4.03262        -0.429760      0.403115      0.243129
Pb       7.59633      7.90268      0.07953         0.053384      0.366862     -1.206841
Pb       7.84568      7.87699      8.33660        -0.607329      0.217062      0.753821
Pb       7.55392      7.76330     12.81290         0.512544     -0.130384     -0.609498
Pb       7.59940     11.94628      4.16252         0.011072     -0.822115      0.315993
Pb       7.75775     11.62566      0.01069        -0.618180     -0.318404      0.410210
Pb       7.60920     11.66971      8.35145        -0.760738     -0.093164     -0.002247
Pb       8.15386     11.78053     12.91344        -0.716442     -0.597005     -0.808137
Pb      11.82923      3.78165      3.96751         0.088747      0.995212      0.507122
Pb      12.03994      3.78667     16.60834         0.416385      0.460174      0.259654
Pb      11.97000     15.15855      4.35733        -1.381629      1.628267     -1.108385
Pb      12.39098     15.52831      0.46714        -1.107715      0.881023     -1.025523
Pb      11.63012      4.15074      8.56127        -0.222248     -0.094015     -0.798045
Pb      11.58624      0.27873      8.10333        -1.399799      0.210532     -0.394173
Pb      11.75486      3.60149     12.72847        -0.559717      0.129436     -0.380500
Pb      11.62917     15.20812     12.04973        -0.878915      1.320194      0.852159
Pb      11.35207      7.49366      4.25887        -0.150261     -0.324804     -0.403356
Pb      12.17418      7.75429      0.09645        -0.930965      0.484214     -0.591507
Pb      11.96776      7.55015      8.85007        -1.495825      0.647139     -1.351802
Pb      11.53552      7.60864     12.69694        -0.273937      0.272946     -0.009481
Pb      11.51643     11.52272      4.20574        -0.475724      0.109310     -0.552461
Pb      11.84029     11.55127     16.53741         0.085670      0.297448      0.125782
Pb      11.30527     11.31958      8.25930         0.305925      0.372902      0.004699
Pb      11.44641     11.47958     12.16304        -0.129246     -0.208313      0.561500
Ti       2.12003      1.90422      2.10014        -1.782896      2.278545      1.911307
Ti       1.94393      1.84384     14.64925        -0.907595      1.162789      0.171161
Ti       1.72256     13.87671      2.61080         1.453587      0.251662     -2.365300
Ti       1.92476     13.76306     14.10479         1.365978      0.008505     -0.329829
Ti      13.93697      2.05625      2.22595         1.173646      0.605002     -0.458055
Ti      13.63642      1.63660     14.32537         2.203215      1.001934      0.199324
Ti      13.62598     13.36251      2.07775         1.639479      1.849790      1.753176
Ti      13.55405     13.58876     14.46663         0.315476      0.409835      3.304163
Ti       1.86610      2.01472      6.19702         1.312299     -1.075206     -0.412906
Ti       1.87141     13.76170      6.41587         1.451154      1.229743      1.352527
Ti      13.59249      2.07852      6.11237        -0.902658      2.104704     -0.315196
Ti      13.58048     13.39827      6.24594        -0.727410      0.139425     -0.240529
Ti       1.85404      1.91285     10.26619         0.754033      0.747667     -0.861698
Ti       1.78013     13.66247     10.28138         1.484241     -1.281361     -0.713404
Ti      13.61311      1.93958     10.24648         0.263031      0.924692      0.564486
Ti      13.47654     13.60570     10.15141        -0.011533     -1.645216     -2.461460
Ti       2.01566      5.87086      2.00447         1.051541     -1.161775      0.162899
Ti       2.07722      5.52910     14.64875        -1.849058      2.739673      1.119373
Ti      13.65067      5.88418      1.98949        -0.264639     -3.921614      1.047938
Ti      13.67662      5.69922     14.41887         0.211524     -0.361150     -0.033477
Ti       2.06651      5.93981      6.36170         1.705906     -2.795885     -0.493283
Ti      13.36852      5.93506      6.18939         0.394943     -4.187937     -1.267243
Ti       2.02103      5.72509     10.06517         1.865908      0.273908      3.532045
Ti      13.85898      5.72970     10.39496        -0.383484     -0.185803      1.737834
Ti       1.84032      9.97281      2.04879         0.331027     -0.676239      1.801540
Ti       1.87974      9.89441     14.36981         1.176070      0.124427      0.201005
Ti      13.65724      9.75499      2.24371        -0.232134     -0.815165     -0.863583
Ti      13.73759      9.63966     14.30980        -0.365727     -0.234482     -0.023152
Ti       1.99970      9.72297      6.51089        -1.437147     -0.457154     -0.460113
Ti      13.41899      9.42369      6.03997         1.357734      1.636234      1.325088
Ti       1.68828      9.74451     10.53274         1.869113      0.306095      1.016956
Ti      13.51541      9.66119     10.35056         1.033605      0.103592      0.788481
Ti       6.02554      1.95229      2.02684        -0.803784      0.854569      0.431167
Ti       5.76756      1.86895     14.47443        -0.224956      0.722645      0.506868
Ti       5.92205     13.72560      2.11807        -2.524434      0.611085     -0.063186
Ti       5.99574     13.68301     14.52062        -3.472675     -2.308757      1.343918
Ti       5.84466      2.17327      6.06991         2.501357      0.367911      0.829459
Ti       6.02588     13.94102      6.33403        -1.735227     -1.438919      0.744613
Ti       5.88549      1.77542     10.54273         1.300817      0.879348     -1.721361
Ti       5.83343     13.47822     10.38918         2.140903      2.082128     -0.140125
Ti       5.84047      6.03453      1.92632        -2.256774     -1.940605     -0.033719
Ti       5.84552      5.65185     14.70526         0.393169      1.271123     -2.136742
Ti       5.79092      6.06517      6.30166        -1.593835      0.168279      0.319285
Ti       6.04070      5.81825     10.46071        -1.638228      0.293195      0.229405
Ti       5.63189      9.94997      1.85005         0.837077      0.233090      0.386714
Ti       5.87171      9.79225     14.43396        -1.332573     -0.158011      0.291262
Ti       5.75276      9.95467      6.01054        -0.067076     -0.493441      1.647948
Ti       5.87407      9.82517     10.55704        -0.094478     -1.572976     -0.877912
Ti       9.96460      2.07417      2.08952        -1.508411     -1.224094      1.793701
Ti       9.78853      1.88171     14.92906         0.360774      1.059951     -1.594730
Ti       9.76872     13.60260      2.11356         0.443961      0.174587     -0.462481
Ti       9.81263     13.76960     14.92451         1.070145     -0.374576      0.097632
Ti       9.70630      2.36623      6.18791        -0.935016     -3.323623     -0.031529
Ti       9.77377     13.76220      6.13107        -0.706415      0.454483      0.787657
Ti       9.80734      1.85499     10.30741        -3.727854      1.029755      1.561505
Ti       9.60794     13.67083     10.02335        -0.793564     -0.898836     -1.900144
Ti       9.56546      5.93923      1.70886         2.379604     -1.518773     -0.296101
Ti       9.75756      5.79501     14.53522         0.372488      1.654181      0.020717
Ti       9.38197      6.00919      6.24256         1.332668     -0.808285     -0.262741
Ti       9.80156      5.74778     10.43369        -1.232214      0.651751     -0.327305
Ti       9.70037      9.62778      1.92583         0.358230      1.910899      1.181990
Ti       9.96134      9.88193     14.78348        -0.726838     -3.522434     -2.797681
Ti       9.40427      9.88967      6.01553         1.583300     -1.980413     -0.326644
Ti       9.63077      9.59553     10.28657        -1.366123     -0.528121      0.978031
O       1.95004      1.81976     16.60482        -0.347357     -0.921698      0.906543
O       1.93189      1.99455     12.63271        -0.114982      0.413151     -0.798937
O       1.92676     14.04857      0.58360         0.976919     -1.728177     -1.613808
O       2.29564     13.85551     12.22114        -1.554768     -0.754299      2.045420
O      13.87961      1.98386      0.28013        -1.347571      0.846599      0.700250
O      13.81474      1.81181     12.43010        -0.335732     -0.834118     -0.124753
O      13.78380     13.54319      0.25149        -0.749560      0.000316     -1.076543
O      13.76417     13.92195     12.77803        -1.378346     -0.670696     -2.556641
O       1.94190      2.10515      4.03520         0.112361     -0.392001      2.245826
O       1.74995     14.00071      4.47036         0.027574     -1.374554      0.099340
O      13.79004      2.07228      4.32954        -0.433588     -0.410491     -0.698995
O      13.68040     13.54625      4.17802        -0.456494      0.186896      0.732702
O       2.07137      2.02050      8.25649        -0.177426     -0.386629      1.775606
O       2.06170     13.20220      8.29528        -1.166986      1.556503      0.826618
O      13.70002      1.93492      8.36013        -0.503971     -0.301949      0.024623
O      13.58381     13.52872      8.29917        -0.564866     -0.110820     -0.500999
O       1.99846      5.66784      0.03808        -0.256989      0.890727     -0.329554
O       1.92734      5.64466     12.67146         0.059306      0.003633      0.232011
O      13.68982      5.41958      0.09093        -0.226764      1.130986     -0.492323
O      13.70258      5.82008     12.23202         0.469381     -0.118326      2.001659
O       2.31347      5.73412      4.06676        -0.426134      0.807063      0.888676
O      13.26393      5.91066      4.23806         0.870697      0.830681      0.399532
O       1.74412      5.80520      8.36983         0.347246     -0.237781     -2.766481
O      13.73026      5.75970      8.29118        -0.149674      0.087411      0.586770
O       1.79288     10.19947     16.56362         0.848060     -1.533202      0.424433
O       1.71268      9.89710     12.49136        -0.153660     -0.668001     -0.031440
O      13.66804      9.62373     16.48076        -0.465760      0.000494      0.695653
O      13.91507      9.78733     12.37236        -0.371070      0.088200      0.706965
O       1.81594      9.49196      4.11854        -0.449470      0.358922     -0.153067
O      13.80413      9.72790      4.14947        -0.128349     -0.892118      0.367664
O       1.81979     10.00446      8.29966         0.261858     -0.355238      1.448764
O      13.40042      9.77863      8.40181         0.319386      0.342599     -0.834168
O       5.90962      1.99294     16.54390         0.464755     -0.257312      0.759798
O       5.75957      1.80455     12.48310         0.714680      0.178187      2.406627
O       5.75052     14.08276      0.38734         0.005160     -0.990649     -0.682273
O       6.28221     13.51872     12.82372        -0.353405      0.260656     -1.650367
O       5.92461      2.16931      4.09415        -0.622802     -0.211815      1.053857
O       5.79350     13.53610      4.56958         0.733238      0.588540     -1.546999
O       5.85516      2.00355      8.47077        -0.873905     -0.555919      0.237375
O       6.04837     13.74867      8.52490        -0.794152     -0.275544     -1.492569
O       5.99731      5.69527     16.60157        -0.210356      0.884986      0.187299
O       5.46630      5.84526     12.53851         1.000834     -0.082726      0.227526
O       5.75727      5.99556      4.37266         0.253629     -0.256327     -0.787437
O       6.31226      6.15853      8.53963        -1.344786     -1.367133     -0.422385
O       5.68941      9.61690      0.00996        -0.106097      0.317786      0.751787
O       5.80207      9.86160     12.57550         0.725727     -0.103504      0.454678
O       6.09125      9.93456      4.25536        -1.493989      0.095777     -0.110621
O       6.05241      9.91226      8.68739        -0.830478     -0.402046     -0.426880
O       9.77230      2.08138      0.19670         0.249856     -0.031883     -1.297537
O       9.47755      1.93207     12.26087         0.959728     -0.842016     -0.444740
O       9.94549     13.46804      0.22154        -1.915314     -0.060823     -0.572149
O       9.79723     13.71509     13.05226        -0.477049      0.251162     -0.757385
O       9.78354      2.12190      4.29710        -1.071731      0.361203     -1.397090
O       9.71038     13.81203      4.14398         0.063313     -1.404267     -0.468772
O       9.70245      1.76541      8.13088         1.571849      0.495291      0.276382
O       9.82734     13.42559      8.13954         0.135973      0.817155      1.136116
O       9.49407      5.97886     16.51489         0.203617     -1.008354      0.285810
O       9.72952      5.94588     12.68139         0.236154     -0.839688     -1.863858
O       9.40377      5.96373      4.28825         0.773579      0.222549      0.004455
O       9.78430      5.90257      8.49120        -0.134950     -0.696739      0.199069
O       9.95541      9.59677     16.59711         0.192462      1.267594      1.152578
O       9.70144      9.95772     12.56427         0.440548     -0.377632     -0.492170
O       9.70218      9.68234      4.11628        -0.427270     -0.690088      0.206341
O       9.48555      9.76317      8.36561         1.483460      0.576606     -0.966299
O       3.89075      1.76777      2.09299         2.122411     -0.990382     -0.317961
O       3.82670      1.90212     14.69748         1.967144     -0.184720     -0.740032
O       3.76767     14.05017      2.63339         0.451120     -0.644422     -0.876004
O       3.94974     13.64660     14.50928         0.266386      0.280756     -0.009728
O       0.20926      2.43110      2.22938        -2.431620     -0.774638     -0.387594
O      15.44973      1.95886     14.68044         1.278753      0.370171     -0.719897
O      15.49336     13.56751      2.14596        -0.913304     -0.656086      0.821998
O       0.12088     13.59026     14.47726        -0.098041      0.105575      0.269520
O       3.84712      2.12498      6.07263         0.216831      0.249134      0.448008
O       3.85777     13.65895      6.36222        -0.810286      0.127954     -0.211717
O      15.54293      1.69614      6.14869        -0.240099      0.628400      0.855588
O      15.48227     13.49014      6.24440         0.058377      1.610013      0.564905
O       3.96846      1.82989     10.60936        -1.224368      0.023746     -0.804076
O       4.11060     13.60663     10.26581        -2.653716     -0.209486      0.230177
O       0.10050      1.76494     10.28288        -1.460307      0.127263      0.417033
O       0.05998     13.94206     10.01277        -1.570944     -1.440347      1.306882
O       3.90497      5.90240      1.70675         2.267870      0.379865      0.104289
O       3.88461      5.81853     14.55908         0.833975     -0.515462      1.006700
O       0.16000      5.68216      2.02039        -1.435567      0.603763      0.500302
O      15.54399      5.77595     14.55661        -0.421066     -0.234125     -0.242694
O       4.12214      5.35028      6.72968        -1.562187      1.008415     -1.226304
O       0.36663      5.94353      6.08068        -2.983891      0.953894     -0.422576
O       3.96166      5.69166     10.08174        -0.686283      0.486745      0.240666
O       0.08334      5.77655     10.22591        -1.144259      0.315978      0.626656
O       3.81057      9.93267      2.30092        -0.368062     -0.479480     -1.098101
O       3.86303      9.91256     14.53968        -0.664282     -0.725917     -0.250773
O      15.52465      9.80105      1.76202        -0.640094     -0.478502      1.169615
O      15.60420      9.72534     14.57544         0.916785     -0.007066      0.229231
O       3.73724     10.05521      6.45100         3.476785     -0.051174     -1.294582
O       0.20333      9.34359      6.29814        -2.498858      0.361040     -0.504217
O       3.78057      9.72458     10.39065         0.106147      0.688711      0.078895
O      15.44452      9.79167     10.06282         1.732985      0.474709      0.617842
O       7.77405      2.05466      2.16833         1.655765      1.005209     -0.491968
O       7.74494      1.92986     14.46291         1.035223     -0.100330      0.817699
O       7.67931     13.19775      2.23707         1.896116      1.340443     -0.437170
O       7.75243     13.36017     15.16629         2.213852      1.420244     -0.674573
O       7.68076      2.03308      6.30418         1.098857     -1.071443     -0.401990
O       7.85831     13.73168      6.37148        -0.117298      0.272395     -0.509635
O       7.92976      1.94326     10.08665        -0.935128     -0.586530      0.533207
O       7.78130     13.85346     10.19364         3.284799     -0.998245      0.753256
O       7.75644      5.85028      2.08450        -1.198798      1.264896      0.281783
O       7.73695      5.90368     14.51372        -0.176528     -0.271784     -0.237297
O       7.60451      6.42780      6.29937         1.903413     -0.423588     -0.075767
O       7.86723      5.95409     10.59977         1.283733     -0.583654      0.709108
O       7.55081      9.79127      2.01755         2.344363     -0.329045     -0.441219
O       7.93418      9.56854     14.76522        -0.246333      0.765877     -0.077088
O       7.69314      9.48177      6.24632        -0.373390      0.455873     -0.019067
O       7.80158      9.47695     10.40007         0.758207      0.358559      1.266909
O      11.78489      1.87910      2.28966        -1.226588      1.215078     -0.731958
O      11.70504      1.62034     14.25704        -1.219177      1.070915      1.123117
O      11.60065     13.70337      1.89901         1.875805      0.335040      1.936233
O      11.70848     13.64400     14.91076         1.461439      0.400575     -0.495177
O      11.62770      2.25102      6.05951         1.330914     -0.410511      1.298583
O      11.63014     13.39693      5.97865         1.526456     -0.036610      0.603626
O      11.71265      2.01683     10.39159         1.513929     -0.933279     -0.311587
O      11.63602     13.69231     10.30843         0.053085     -0.031064      0.639380
O      11.67179      5.63639      1.88915        -0.487639      1.046522     -0.094292
O      11.72742      5.54431     14.45796        -0.362961      0.470874      0.528994
O      11.66721      5.60338      6.28789        -1.487006      0.619389      0.416476
O      11.84393      5.83152     10.41820        -1.021673     -0.527756     -0.423315
O      11.79415      9.37495      2.09300        -0.504485      0.554386     -0.081999
O      11.91675      9.91409     14.30758        -1.596684     -0.631519      0.543032
O      11.72280      9.92099      5.97609        -0.292344     -0.935376      0.545163
O      11.66599      9.54871     10.42189        -0.026977      0.928064      0.393644
O       2.33926      3.86258      2.03131        -0.258935      0.107722     -0.553087
O       1.93479      3.81531     14.88918        -0.291070     -1.577782     -1.048255
O       1.44298      0.05414      2.33498         0.313267      1.045374      0.159914
O       1.93987      0.07351     14.30355        -0.280578     -2.395298      0.935550
O      13.69762      3.98457      2.52840        -0.333485     -0.773913     -0.980281
O      13.65049      3.86125     14.30027        -0.592594     -1.062654      0.290865
O      13.73922      0.21104      2.33894         0.279158     -1.678559      0.003875
O      13.92780     15.56761     14.96386        -1.345380     -1.569456     -0.771876
O       1.68569      3.78155      6.34399         0.332433      0.819360      0.188809
O       1.85086      0.00531      6.55931         0.042226     -1.119013      0.057975
O      13.73864      4.00601      6.24991         1.027476     -1.267594      0.471855
O      13.42690      0.05075      6.26868        -0.405259     -1.023493     -0.362011
O       1.93945      3.97495     10.42695         0.054471     -2.831972      0.219316
O       2.03653     15.53620     10.38309         0.750551      1.392883     -0.456266
O      13.71699      3.79980     10.37109         0.245726     -0.584003     -0.281090
O      13.69706     15.41515     10.40286        -0.800765      1.972409      0.500606
O       2.11366      7.83414      2.08005        -0.970561      0.309017     -1.068925
O       1.81898      7.63718     14.61449         0.311015      1.877595      0.179660
O      13.69841      7.60210      2.11478         0.684142      3.421157     -0.218608
O      13.46920      7.69218     14.45579         0.598146     -0.008965     -0.008979
O       2.53714      7.54803      6.61105        -0.202861      4.039422     -0.772569
O      13.59609      7.67666      6.48067        -0.158509      3.137681     -0.490717
O       1.89353      7.77868     10.47978        -0.491838      0.793048     -0.626197
O      13.77293      7.80094     10.36202        -0.025943     -0.599251     -0.427568
O       1.80308     11.74589      2.16131         0.409531      0.833703      0.603292
O       2.15204     11.87624     14.38400        -1.247259     -0.877337      0.000148
O      13.33721     11.62750      2.26455         0.261919     -1.805597     -0.504686
O      13.82576     11.67555     14.56108        -0.211561      1.514430     -0.096019
O       1.78847     11.66327      6.11623        -0.638852      0.030693      0.055484
O      13.85111     11.66421      6.17384        -0.945457     -2.548178      0.290479
O       1.95302     11.76563     10.71281        -0.562886     -0.416758     -1.018688
O      13.44580     11.77254     10.66413         1.086596      0.299171     -0.421162
O       5.78972      4.01902      2.06442        -0.029068     -0.213182      0.235866
O       5.94401      3.83509     14.49738        -0.456754     -0.251172      0.142974
O       6.26073      0.10569      2.26876        -1.019366     -1.301954      0.482989
O       6.09756     15.48218     14.73638        -0.080147      1.933466     -0.464542
O       6.22186      4.03056      6.44283        -0.811436     -0.063005     -0.637064
O       5.69793      0.19559      6.21376         0.811086     -1.305867      0.675529
O       5.92962      3.85610     10.68058         0.172874      0.312000     -0.318722
O       5.96117     15.49859     10.71959        -0.362158      0.717667     -0.317761
O       5.60804      7.85500      2.13334         0.739772      0.126681     -0.183847
O       5.71528      7.82457     14.44082         0.417769     -0.460501      0.662511
O       5.40986      7.92910      6.25167         0.344050      0.633549      0.152584
O       5.77457      7.73054     10.57656        -0.255363      1.142170      0.319353
O       5.62409     11.82308      1.89083        -0.191820     -0.397345      0.016142
O       6.01245     11.60605     14.75413        -0.038237      0.625437      0.282754
O       5.90706     11.79246      6.48416         0.327831     -1.360637     -0.438821
O       6.28641     11.70452     10.66848        -0.638212     -0.233189     -0.055808
O       9.51376      4.09600      2.02530         0.906553     -2.198215      0.269888
O       9.69795      3.76893     14.37067         0.307828     -0.339429      1.168393
O       9.53581      0.05629      2.29146         0.557440     -0.199425     -1.016383
O       9.56160      0.09002     15.02405         0.057287     -2.063772     -0.637849
O       9.37294      4.05882      6.41713         0.089497      1.544537      0.038380
O       9.91052     15.55815      6.08684         0.334904     -0.174483      0.673834
O       9.71723      3.82590     10.44460         0.839050      1.812234     -0.389798
O       9.78322     15.54120     10.12605         1.037622     -0.711418      0.563177
O       9.55411      7.83857      1.65779         0.098862     -0.134556      1.889984
O       9.93695      7.71574     14.50012         0.637638      0.398050      0.155565
O       9.90853      7.68045      6.20118         0.485875      2.619594      0.287476
O       9.87322      7.73831     10.34599         0.205942     -0.052605      0.512659
O       9.94428     11.57469      2.27982        -0.412322     -0.041812     -0.729807
O      10.09654     11.62711     14.63765        -1.442985      1.955539      0.997063
O       9.58440     11.67056      6.00192        -0.002116     -0.321917      0.305589
O       9.92775     11.61103     10.23016        -0.389501      1.092677      0.908707
