  # total energy = -7843.81267258 
CRSYTAL
PRIMVEC
    15.6080000000000005    0.0000000000000000    0.0000000000000000
     0.0000000000000000   15.6080000000000005    0.0000000000000000
     0.0000000000000000    0.0000000000000000   16.6239999999999988
PRESSURE
2.31672 3.01107 -2.30436 -0.355636 -0.082765 0.067833
PRIMCOORD
320 1
Pb       3.62614      4.04855      4.10742         1.275856     -0.384756      0.689295
Pb       3.79424      4.04221      0.23281         0.043397     -0.459514     -0.687009
Pb       3.80347      0.06351      4.30963        -0.366502      0.582911     -0.181503
Pb       3.84948     15.40999     16.30855        -0.080317      0.989108      2.118038
Pb      15.53471      3.96905      4.16767        -0.503666      0.202823      0.550388
Pb       0.07954      3.73636     16.49078         1.031658      0.235825      0.934375
Pb       0.08987     15.44973      4.37962        -0.054904      0.412205      0.090029
Pb       0.21885     15.38767      0.02686        -0.770645      0.987466     -0.353314
Pb       3.93052      3.83666      8.35318        -0.032095      0.242487     -0.754496
Pb       3.85498     15.54873      8.03049         0.561216      0.403336      0.615391
Pb      15.48562      4.06534      8.27566         0.941131      0.103394     -0.126023
Pb       0.06571      0.31135      8.43115        -0.483710     -2.112117     -0.637681
Pb       4.17225      3.81224     12.43189        -0.198803      0.900650      0.473244
Pb       3.89884     15.42929     12.34310        -0.492803      1.471561      0.871014
Pb      15.50572      3.66892     12.46052         0.912639      1.983449      0.816077
Pb       0.15740      0.26353     12.46331        -1.506499     -1.522832      0.226661
Pb       3.70170      7.75648      4.30567         0.244481     -1.299966      0.163120
Pb       3.71602      8.00492      0.10658         0.229931     -1.321445     -0.727603
Pb      15.40044      8.07766      4.18556         0.429632     -1.853812      1.036463
Pb      15.50370      7.88220      0.25644         0.514546     -1.011754     -0.667703
Pb       3.67642      7.92134      8.29565         0.460625     -1.024436      0.770484
Pb      15.56680      7.52469      8.40419        -0.025576      0.008999      0.532868
Pb       3.99009      7.92784     12.47323        -0.188796     -0.979682     -0.714168
Pb       0.15020      7.63635     12.72421        -0.204816     -0.858570     -0.836882
Pb       4.08988     11.53004      3.94665        -1.641607      0.993512      1.410327
Pb       4.03285     11.63875     16.42242        -0.546950     -0.134395      0.108193
Pb      15.40060     11.65909      4.48015         0.348398      0.836012     -0.647355
Pb       0.02606     11.70849      0.12960        -0.221200      0.610287     -0.196134
Pb       4.09574     11.69674      8.61727        -0.324337     -0.352249     -0.357226
Pb       0.01214     11.32685      8.55751        -0.171873      0.621499     -0.267767
Pb       3.47464     11.79130     12.32057         2.359615     -2.285603      0.394424
Pb      15.59274     11.66123     12.40744        -0.467629      0.181298      0.200472
Pb       7.71456      4.05362      4.40353         0.197972     -0.873187     -0.302341
Pb       7.86273      3.65150      0.15654         0.446400      1.522090     -0.345638
Pb       7.42383      0.20988      3.99988         0.344846     -1.729642      1.821687
Pb       7.84479      0.27909      0.18119        -0.549706     -1.580306      0.109665
Pb       8.06560      3.89868      8.73304        -1.034453      0.041845     -0.539905
Pb       7.87019      0.24417      8.33878        -3.013712     -1.510832      0.518004
Pb       7.87995      3.62315     12.68793         0.398303      0.584323     -0.488463
Pb       7.59819     15.26173     12.43930         0.781135      2.797423      0.620461
Pb       7.87412      7.72231      3.93320         0.887819      0.694538      0.405954
Pb       7.95305      7.86316     16.33934        -0.399739     -0.186498      0.579797
Pb       7.90646      7.60869      8.18915        -0.278132      0.614207      0.722016
Pb       7.66221      7.65856     12.56557        -0.064287     -0.521774     -0.104393
Pb       7.63111     11.86161      4.30631         1.599239     -0.360164      0.214724
Pb       7.55294     11.31439     16.60047         0.374626      1.123026      0.664747
Pb       7.52108     11.92051      8.64602         0.417828     -0.177380     -0.741494
Pb       7.72176     12.01619     12.56455        -0.343202     -1.474007     -0.089008
Pb      12.01835      4.12967      4.00679        -1.925784     -2.246557      1.702838
Pb      11.79845      3.80613      0.15773        -0.163295     -0.649149     -0.086082
Pb      11.59479      0.14572      3.85970         0.399131     -0.737340      0.991722
Pb      11.71711     15.52343      0.03077         0.553141     -0.615001      0.023968
Pb      11.56565      3.82634      8.24738         0.200409      0.527915     -0.441056
Pb      11.37252      0.08928      8.31264         0.975065     -0.301255     -0.448076
Pb      11.81085      4.06914     12.62722        -1.297398     -0.829994     -0.070665
Pb      11.76372      0.17141     12.31937         0.003200     -0.200106      0.787867
Pb      11.83088      7.89440      3.96449        -0.734738      0.311976      0.756404
Pb      11.57776      7.73288     16.51688        -0.448293      1.140576      0.290371
Pb      11.32964      7.86919      8.08229         2.176724     -1.383929      1.105661
Pb      11.81898      7.84936     12.24326        -0.579716     -0.202769      1.091149
Pb      11.64094     11.85058      4.35905        -0.008903     -0.028706     -0.406723
Pb      11.61332     11.73272      0.30387         0.346060      0.208211     -0.637563
Pb      11.96330     11.21901      8.22055        -0.240475      0.786260     -0.093615
Pb      11.55128     11.70804     12.33436         1.118831     -0.011659      1.411180
Ti       1.88577      1.86925      2.08653         0.454985      1.193451     -0.945655
Ti       1.99734      1.95285     14.58461         0.851410      0.556000      2.061374
Ti       2.00272     13.72343      2.24604        -0.154615     -0.502829      0.063343
Ti       1.88302     13.52970     14.59838         0.462914     -0.388094      0.718761
Ti      13.76355      1.76812      2.14178        -0.633488      3.332389     -0.736344
Ti      13.68388      1.90363     14.74012         0.713893     -1.284218      0.673508
Ti      13.64791     13.73638      2.21853        -0.207072     -1.360342     -0.159947
Ti      13.65028     13.55316     14.41184        -1.368358      0.127524      0.758251
Ti       1.91906      1.95569      6.32707         0.244508     -0.477980     -1.377113
Ti       1.98444     13.44172      6.35880         0.311644      1.741670     -0.071834
Ti      13.65343      1.93724      6.39168         0.355477     -0.362622     -2.690535
Ti      13.72611     13.79253      6.47930        -2.156484     -0.140735     -0.157705
Ti       1.96997      1.98172     10.62166         0.792123      0.021205     -2.032325
Ti       1.84724     13.69515     10.38998        -1.462356     -0.591050     -1.706056
Ti      13.65129      1.95237     10.41126        -0.734985     -0.256047     -0.652335
Ti      13.63025     13.51223     10.39724         1.993955      0.547590      0.017123
Ti       1.90225      5.75038      2.26534        -0.094298      1.804491     -1.414494
Ti       2.09552      5.74736     14.74096        -1.107274      0.358468      0.048271
Ti      13.64626      5.76713      2.01676         1.855775     -0.170974      0.707274
Ti      13.66394      5.82653     14.82379         2.204997      0.987520     -0.390332
Ti       2.05251      5.94166      6.27405        -0.244051     -1.541024      2.546478
Ti      13.60487      5.84542      6.52890         0.689277      0.781768     -0.522592
Ti       1.77208      5.69064     10.62755         1.593143      4.465711      0.341432
Ti      13.51428      5.78582     10.67602         2.705127      1.179810     -1.478644
Ti       1.98018      9.81304      2.30767        -0.317026      0.064283      5.747832
Ti       1.72344      9.68560     14.54109         3.171121     -0.103408     -0.382237
Ti      13.67317      9.91851      2.30397        -3.088845      0.937324     -0.548989
Ti      13.57933      9.85762     14.88467         0.141193      0.288464     -0.743260
Ti       2.05192      9.78623      6.30253         0.174328     -0.587423     -1.532394
Ti      13.73941      9.68638      6.35428        -0.661480     -1.732874      0.047852
Ti       1.88567      9.57511     10.41686         1.368299     -1.182465      1.669008
Ti      13.66735      9.68067     10.66770         0.954242     -1.412367      0.418294
Ti       5.61417      1.95605      2.06490         0.094380     -0.351527      0.450825
Ti       5.90464      2.08840     14.69567        -2.513707      0.425607     -0.688583
Ti       5.88459     13.43556      2.27431         0.731356      2.367838     -1.529471
Ti       5.86545     13.81690     14.76583         0.419434     -2.312731      1.285733
Ti       5.84372      2.03771      6.15720        -1.525969     -1.044530      1.540867
Ti       5.86158     13.47926      6.37654         0.525096      1.625822      0.810779
Ti       5.84786      1.89588     10.48215         0.895660      1.529580     -1.361947
Ti       5.61893     13.65124     10.72040         0.490033     -0.967292     -2.158132
Ti       6.10555      5.69638      2.15682        -3.023471      0.333364     -0.375130
Ti       5.91360      5.78438     14.87169        -0.233395      0.858026     -0.758899
Ti       5.96716      5.77352      6.46315        -1.898448     -0.860755      0.022785
Ti       5.73437      5.86333     10.31843        -0.503604     -0.631979      0.840291
Ti       5.86306      9.53070      2.25631         1.591889     -0.466490     -2.206039
Ti       5.70154      9.81535     14.38165         0.108618     -1.995377      1.497667
Ti       5.97225      9.56033      6.25082        -0.275585      0.590211      2.400404
Ti       6.02747      9.65777     10.43630        -1.701268      0.112646     -0.682645
Ti       9.68418      1.98436      2.28542         1.888677     -0.038822     -0.343273
Ti       9.86124      1.75745     14.81789         0.435958      1.541251     -2.303918
Ti       9.67442     13.59184      1.89415        -0.036885      0.287540      0.152226
Ti       9.77022     13.58068     14.50771         1.708340      0.227192      1.852223
Ti       9.70509      1.68789      6.17643        -0.164168      3.633974     -0.625610
Ti       9.78516     13.65044      6.27196        -0.429775     -0.913296     -1.268641
Ti       9.71988      1.98027     10.62598        -0.182200      0.003268      1.521600
Ti       9.75035     13.76201     10.50059         0.262816      0.686743     -0.552621
Ti       9.88467      5.81793      2.14958        -0.904155      0.529192     -0.960156
Ti       9.84995      5.70563     14.69262        -2.106398     -0.683743     -0.288653
Ti       9.74518      5.78387      6.21702         1.272792     -1.379996      1.085947
Ti       9.73274      5.83380     10.53696        -1.886897      0.585356      0.478648
Ti       9.78702      9.85121      2.31136        -0.483094     -0.539869     -1.217181
Ti       9.66424      9.84976     14.46727         0.803391     -1.331597      2.590228
Ti       9.67374      9.83153      6.44031         0.582735     -1.199224     -2.211064
Ti       9.75721      9.75867     10.38882        -0.959862     -3.061024     -0.091029
O       1.97940      2.15617      0.08045        -0.089737     -0.830447      2.083303
O       1.75387      1.98085     12.73995         0.170461      0.006627     -1.206007
O       2.04324     13.98158      0.19348        -1.125952     -2.029812      0.765953
O       2.10080     13.39371     12.73898        -0.906573      1.874405      1.217987
O      13.72426      1.72770      0.31643        -0.844047      0.196192     -0.360169
O      13.84553      2.10965     12.92770        -0.905680     -0.552470     -0.741792
O      13.60845     13.58516      0.41180         1.571555      0.268749     -0.355957
O      13.59317     13.32527     12.65165         0.220643      0.313272     -0.087262
O       1.99960      1.80298      4.31016        -0.369394      0.111011      1.168535
O       2.11638     13.70754      4.32128        -0.259648      0.066899      1.083770
O      13.76172      1.88620      4.47921        -0.490168     -0.025072      1.132411
O      13.50953     13.64035      4.31002         0.194745      0.189625      0.591678
O       1.83308      1.48614      8.69112         1.347838      2.753333      2.011868
O       1.77588     13.66381      8.52409         0.020102     -0.318993      0.901080
O      13.85572      1.83291      8.63468        -0.929504      0.286270     -0.117002
O      13.97504     13.36274      8.54532        -1.226475      0.599417      0.374720
O       2.18142      5.89807      0.15256        -0.740322     -0.989938      1.597299
O       1.71884      5.64516     12.51554         0.179359      1.461971      1.699583
O      13.57301      5.67827      0.08169        -0.113540      0.690271      1.414656
O      13.71828      5.98516     12.58875        -0.230661     -1.463360      1.134242
O       1.86086      5.64559      4.48422        -0.428955     -0.393785     -2.854648
O      13.64439      5.51734      4.36871         1.234431      1.363923      0.398980
O       1.96627      5.98006      8.16942        -0.199713     -0.165851      1.548531
O      13.58397      6.23550      8.43407         0.460763     -1.457824      0.841213
O       1.86490      9.62123      0.68851        -0.514433     -0.388157     -5.002846
O       1.97645      9.73869     12.69590        -0.042179     -0.564368      0.419363
O      13.85926      9.70413      0.43854         0.093198      0.395260     -1.403824
O      13.73663     10.13373     12.52911        -0.646044     -1.995511      0.830837
O       2.12866      9.97903      4.47067        -0.205718     -0.669883     -0.235107
O      13.43691      9.71776      4.42936         0.938095     -0.165177     -0.766444
O       1.81247      9.59435      8.67204         0.836280      0.130494     -3.032762
O      13.65085      9.56020      8.38554         0.658448      0.771536      0.799117
O       5.97048      2.11405      0.20445        -0.539797     -0.817869      0.481277
O       5.77506      2.13861     12.74934         0.011711     -0.751723      1.005835
O       6.39769     13.61547      0.06004        -1.836107     -0.069659      0.642873
O       5.44540     13.70173     12.71454         1.562702     -0.090313     -1.278519
O       5.67107      1.84274      4.36073         0.233477     -0.046862     -0.349809
O       5.90083     13.64102      4.24033        -0.550746     -0.567696      0.637754
O       5.85149      2.00023      8.59883         0.067611      0.183200      1.681600
O       5.67708     13.64462      8.58583         0.999176     -1.364487      0.131997
O       5.64598      5.52166      0.47108         0.972773      0.809734     -0.842057
O       5.83406      5.84153     13.10073         0.537702     -0.383387     -1.643111
O       6.17091      5.75990      4.69903         0.698406      0.644065     -1.882963
O       5.59198      5.79278      8.56549         0.822412     -0.149376     -1.437876
O       5.49966      9.60700      0.25665         1.857095      0.881888      2.651405
O       5.88888      9.48296     12.63232        -0.151204      1.187831     -1.073993
O       6.19647      9.66466      4.50648        -0.846295     -0.304413     -0.821038
O       5.90014      9.97987      8.59578         0.330991     -0.290863      0.180092
O       9.80790      1.73993      0.20996        -0.448022      0.932283      0.576239
O       9.78612      1.88720     12.77865         0.271997     -0.366908      1.327541
O       9.38128     13.54897      0.09192         0.486823     -0.384355      0.387669
O       9.75849     13.60205     12.63924         0.081535     -0.035554      0.129121
O       9.78412      1.72788      4.39812        -0.464536     -0.011428     -0.751311
O       9.79880     13.53227      4.45882         0.027847      0.187446      0.881083
O       9.33245      1.83430      8.81325         2.081997      0.921170     -1.206242
O       9.38115     13.71182      8.74745         1.607812     -0.125261      0.422963
O       9.81166      5.81644      0.33034         1.490050      0.260595      0.177914
O       9.63985      5.52064     12.93220         0.456830      0.794925     -1.143778
O       9.83155      5.68684      4.44776        -0.700370      0.322681     -0.342126
O       9.92847      5.70608      8.75389        -0.814934     -0.493959      0.057363
O       9.60150      9.59226      0.28225         0.635952      0.367984      0.577844
O       9.81779      9.79831     12.79218        -0.029639     -0.564451     -2.962834
O      10.07183      9.70533      4.57453        -1.331741      0.064685     -0.809536
O       9.76798      9.59115      8.56019         0.312752      0.813003     -0.429074
O       3.80152      1.96025      2.38565         1.312813      0.288514     -0.706223
O       3.78361      2.18121     14.78334         0.608277     -1.524145     -0.346665
O       3.80195     13.43725      2.08999         2.533968     -0.021044      0.632622
O       3.99413     13.44256     14.95634        -1.467964      0.749912     -0.232090
O       0.01952      1.82632      2.16815         0.145965      0.159230      0.545387
O       0.01385      1.79652     15.05749         0.092044     -0.422734     -1.039096
O       0.10705     13.51136      2.47090        -1.086974      1.057112     -0.802078
O       0.03190     13.41759     14.66002         0.324120      0.522691      0.511213
O       3.76457      1.84642      6.53427         1.648764     -0.433837      0.024555
O       3.82809     13.45327      6.68553         1.004179      0.834589     -1.051242
O      15.58911      1.79812      6.40457        -0.538248      0.028571      0.784326
O      15.45070     13.56188      6.14694         2.544361      0.044214      0.045476
O       3.86417      1.91446     10.75633        -0.858725      0.473603      0.012265
O       3.78071     13.46353     10.55735         0.436452      0.896633      0.466880
O      15.56427      2.14913     10.74447         0.576789     -1.317384     -0.104452
O       0.07131     13.62391     10.80055        -0.743365      0.124699     -0.041272
O       4.15066      6.09743      2.57439        -0.433664     -1.368192      0.332013
O       3.91866      6.03701     14.94737        -0.548551      0.081444     -0.429006
O       0.04634      5.59362      2.10310        -0.759025      0.753895      0.390503
O       0.12197      5.87088     14.80750        -2.361557     -0.253977      0.168918
O       3.91877      5.71643      6.21348         0.292610      0.543638      0.447594
O      15.53618      5.53427      6.44543        -0.006004      0.341755      0.192331
O       3.84279      5.95804     10.51426         1.319915     -0.538657      0.691064
O      15.59340      5.89186     10.33001        -2.060842     -0.493295     -0.362809
O       4.06703      9.51337      2.90966         0.183843      0.482577     -2.802085
O       3.87017      9.64444     14.93153        -0.499250      0.200771     -0.996421
O      15.40456      9.79160      2.71368         2.942156     -0.006624     -0.846209
O       0.01507      9.95591     14.59729        -2.758918     -0.262085      0.870342
O       3.89678      9.56566      6.46397         2.360595      0.527023      0.308139
O       0.22429      9.87820      6.13660        -3.332726     -1.059115      0.756257
O       4.04875      9.60126     10.35096        -1.073013     -0.337356      1.221949
O       0.09520      9.41412     10.47956        -2.029174      1.525534      0.565597
O       7.75467      1.68741      2.49043         1.499949      2.119240     -1.897706
O       7.71116      2.00249     14.74470         0.958789     -0.487146      0.604892
O       7.86480     13.14965      2.44800        -0.739452      1.780164     -0.602903
O       7.68886     13.71123     14.42014         1.657606     -0.639601     -0.952515
O       7.63507      1.98679      6.25787         2.513165      0.339826      0.268250
O       7.90697     13.40270      6.48883        -2.180506     -0.165416     -0.097963
O       7.78571      1.85138     10.91163        -1.557480      0.126277     -0.314976
O       7.83998     13.72267     10.81744        -1.081443     -1.280380      0.060969
O       7.95261      5.57883      2.12282         0.689469      0.295208      1.360034
O       7.81506      5.40957     15.29171        -0.604758      1.559239     -0.997519
O       7.89525      5.37017      6.82750         0.000124      1.358609     -0.819706
O       7.73441      5.64976     10.63970         1.287797      0.559368     -0.193991
O       7.89436      9.72631      2.56582        -0.447455      1.073730     -0.221333
O       7.79685      9.77561     14.84776        -0.373219      0.309994     -0.880811
O       7.85881      9.66076      6.78854        -1.129640      0.296202     -0.828567
O       7.86397      9.91048     10.55886         0.178744     -0.184176      0.420822
O      11.67450      1.94909      2.35017        -0.713898     -0.630200      0.030996
O      11.76740      1.73147     14.75698        -0.402277      0.788056      0.479516
O      11.59809     13.48261      1.85069         0.680785      1.572908      1.028639
O      11.68928     13.49561     14.83870        -1.037357      0.609854     -0.270846
O      11.54334      1.68642      6.57519         0.731279     -0.581655      0.681831
O      11.72062     13.77888      6.44480        -1.000909     -0.451981      1.097356
O      11.70691      2.15621     10.54680         0.622475     -1.446911      0.460970
O      11.81400     13.65005     10.68284        -1.408285     -0.010440     -0.694592
O      11.86267      5.81712      2.36016        -2.376548     -0.249357     -0.506503
O      11.73935      5.42131     14.74660         1.363383      1.223453      0.111984
O      11.66779      5.81686      6.79116        -0.876989     -0.183376     -1.569000
O      11.68885      5.86942     10.78764        -0.679848     -0.162285      0.476012
O      11.65901      9.70692      2.28952         1.676519     -0.566600      0.125952
O      11.83724      9.59308     14.78707        -1.308250     -0.345578      0.188973
O      11.78938      9.49749      6.45922        -0.440824      0.555172      1.208666
O      11.77604      9.34865     10.54556        -0.157038      1.778857     -0.158787
O       1.96387      3.89855      2.36750         0.620898     -0.528097     -0.008449
O       1.91306      3.93753     14.57206        -0.164397     -0.053028      0.872556
O       2.09048      0.09011      2.24882        -0.482630     -2.143513      0.156669
O       2.09474     15.58851     14.93406        -0.974534     -0.743181     -2.094607
O      13.47078      3.76487      2.40917         1.578617      0.586612     -1.728926
O      13.87539      3.68950     15.21733        -1.857003      1.196550     -2.010794
O      13.44700      0.06824      2.34724         0.303639     -3.646733      0.480331
O      13.54176     15.33245     14.64880         0.836220      1.678694      0.178808
O       2.02210      3.69715      6.74827        -0.593673      0.704162     -0.334532
O       1.98236     15.55408      6.62989        -0.666693     -1.412957     -1.282037
O      13.61554      3.77992      6.64722        -0.722884     -0.073568      0.467297
O      13.59915     15.60166      6.67436         0.416650     -0.790277      0.101161
O       1.86948      3.99796     10.67417         0.850515     -6.955938     -0.884493
O       1.94699     15.54528     10.90961        -0.139100      0.590355     -0.216437
O      13.60605      3.96451     10.37888         0.253369     -0.156929      1.015423
O      13.71700      0.03636     10.92930        -0.050456      0.345698     -0.875024
O       1.99292      7.60800      2.52673        -0.689070      1.560231      0.372991
O       1.67999      7.88384     15.10209         0.600427      0.603602     -0.912601
O      13.56644      7.62620      2.29235         1.215785      0.704630      0.027081
O      13.68960      7.75390     14.97290         0.173965     -0.986517     -0.066850
O       2.08078      7.75524      6.22949        -0.936818      1.409569      0.083486
O      13.85405      7.66571      6.28542         0.141838      0.861347     -0.558546
O       1.89456      7.54528     10.66332         0.657892      4.068856      0.193811
O      13.78292      7.80547     10.86550        -0.373161      0.019397     -0.117319
O       1.89788     11.61396      2.38604         0.657015      0.399410     -0.396855
O       1.93217     11.58762     15.06963         0.552821      1.037978     -0.011376
O      13.49907     11.79348      2.37819         0.603381     -1.916928      0.064451
O      13.51301     11.65882     14.99651         0.917804     -0.537562      0.308865
O       2.01066     11.63882      6.55463        -0.404822      1.010078      0.511335
O      13.68490     11.47760      6.51654        -0.307983      1.932303     -0.088578
O       1.93208     11.60060     10.64015        -0.411327     -0.053210     -0.499050
O      13.89561     11.65745     10.72270        -0.560838      0.232755     -2.313228
O       5.90442      3.78477      2.49486         0.255810      0.501043      0.197964
O       5.52437      3.95239     14.96904         0.929982     -1.475001     -0.442104
O       5.85474      0.03962      2.26339        -0.243833     -1.233570     -0.197949
O       5.64975     15.57933     14.79218         0.566111      2.116841     -0.616406
O       5.62486      3.87792      6.44117         0.420439     -0.431318      0.495142
O       5.93552      0.05602      6.60538        -0.871225     -1.521081     -0.754689
O       5.83988      3.93722     10.67667        -0.672097     -0.888641      0.075955
O       5.70535     15.59682     10.58632        -0.011086     -0.966399      1.140220
O       6.44808      7.76578      2.09662        -1.597467     -0.142022      0.820150
O       5.94354      7.85822     14.60339         0.623142     -0.291251      1.379915
O       5.98407      7.70394      6.70386         0.155017      0.558346     -0.440522
O       6.08911      7.73745     10.67704        -0.220735      0.553039     -0.042835
O       5.87608     11.63529      2.25345        -0.702004     -1.489617      0.236272
O       5.78198     11.64963     14.72109         0.737867     -0.154987      0.061720
O       5.85364     11.66864      6.44763        -0.091369     -0.230271     -0.246342
O       5.75070     11.73288     10.74890         0.872312      0.547097     -0.120733
O       9.94393      3.82847      2.38998        -0.903104     -0.135041     -0.540355
O       9.75349      3.82001     14.88468         0.425446     -2.144228      0.865962
O       9.95296     15.49657      2.19091        -1.328685      0.071346      0.031667
O       9.87784     15.47078     15.01153        -0.966558      0.307824     -1.007015
O      10.00278      3.70119      6.61774        -1.380519      0.175993     -0.371502
O       9.34101     15.53516      6.68407         1.931194     -0.237119     -0.506553
O       9.64414      3.77594     10.95405         0.430423      1.715411     -1.044898
O       9.71343      0.09456     10.69994         1.096992     -3.164787      0.239327
O       9.84334      7.81485      2.38420        -0.210205     -1.860477      0.410328
O       9.61928      7.67563     14.60760         0.603033     -0.126621      1.176648
O       9.56309      7.68055      6.45509         0.160386     -1.012954      0.379593
O       9.64869      7.73732     10.59151         0.106347     -0.772944      0.954512
O      10.08252     11.71311      2.24786        -1.359410     -1.167970      0.445253
O      10.03825     11.62563     14.64012        -1.551726      1.097780      0.244511
O       9.88491     11.56926      6.44839         0.414595      2.154956      0.762303
O       9.95047     11.43371     10.71828        -0.061679      4.256663     -0.438026
