  # total energy = -7840.82204649 
CRSYTAL
PRIMVEC
    15.6080000000000005    0.0000000000000000    0.0000000000000000
     0.0000000000000000   15.6080000000000005    0.0000000000000000
     0.0000000000000000    0.0000000000000000   16.6239999999999988
PRESSURE
4.6449 4.55223 3.99259 -0.308473 -0.248488 -0.23926
PRIMCOORD
320 1
Pb       4.11424      3.96351      4.21534        -0.364423      0.399359      0.499232
Pb       4.03254      3.70954     16.61435        -0.155093      1.176566     -0.046391
Pb       4.15426      0.03166      4.12129        -1.394966      0.281062      1.521044
Pb       3.92494      0.16467      0.23923         0.252191     -2.446904      0.292744
Pb       0.23046      3.87103      4.18654         0.215843      0.487927     -0.415432
Pb       0.04215      3.86466      0.08653        -0.001655      0.615343      0.636977
Pb      15.51085      0.06156      4.12738         0.072809     -0.547815      0.701049
Pb       0.01808      0.06814     16.62095         0.321513     -1.018785      0.922784
Pb       3.98442      3.78132      8.19345        -0.429779     -0.503465      1.209345
Pb       3.91985      0.02519      8.61131        -0.247928     -0.727142     -0.600942
Pb      15.58029      3.75469      8.32725        -0.298732      1.294358     -1.043845
Pb      15.35809     15.55192      8.16167         0.081623     -0.373475     -0.541253
Pb       3.72412      3.84175     12.30311         0.329868     -0.339741      0.722619
Pb       3.83090      0.27099     12.38522         0.060432     -0.457701      0.011007
Pb       0.17168      3.90659     12.40943         0.138805     -0.153254      0.788517
Pb      15.31023     15.38307     12.05286         1.117779      1.224162      1.860220
Pb       3.91951      8.11985      4.14555         0.229617     -1.410726     -0.094784
Pb       4.00616      7.91373     16.59865        -1.181178     -0.507029      1.595232
Pb       0.10615      7.71244      4.14360         0.150284     -0.103603     -0.515192
Pb       0.03743      8.07910     16.49748         1.258842     -0.292386      1.808981
Pb       4.10399      7.90014      8.58042        -1.011232     -1.049896     -0.649892
Pb       0.03259      7.79961      8.47154        -1.084824     -0.561005      0.459320
Pb       3.83383      7.60027     12.66599        -0.022015     -0.207411      0.671416
Pb      15.58827      7.64111     12.47355        -0.124840      0.385582      0.273354
Pb       3.75553     11.91393      4.49238        -0.731385      0.343036     -0.523610
Pb       3.59211     11.80351      0.21328         0.261042      0.496546      0.114749
Pb       0.15496     11.62476      4.12376        -0.188153      0.728456     -0.023253
Pb      15.45580     11.62715     16.44100         0.850704      0.518961      0.322866
Pb       3.81383     11.54486      8.23897        -0.111659      1.283206      2.779315
Pb      15.50184     11.62028      8.18640        -0.284630      0.741544      1.287281
Pb       4.32747     11.83733     12.43519        -2.124455     -0.860444      1.213350
Pb      15.37903     11.75660     12.48519        -0.246360     -0.362371      0.115994
Pb       8.08940      3.94380      3.74902        -1.577847      0.450665      1.385890
Pb       7.84290      3.97079     16.45029        -0.830879     -0.170094      1.124118
Pb       8.20893     15.57654      4.10352        -1.323994      0.299041      0.705337
Pb       7.64511     15.35514     16.53528         0.510692      0.826549      1.788284
Pb       7.53331      4.02677      7.95599         1.183690     -1.680115      2.495274
Pb       7.70983      0.03040      8.34214         0.350391     -0.261333     -0.161558
Pb       7.86493      3.91719     12.40115        -0.145692     -0.648561      0.420975
Pb       8.12362      0.23997     12.61410        -1.889072     -1.680371     -0.127847
Pb       7.61391      7.85220      4.09090         0.480767     -0.198955     -0.633550
Pb       7.65273      7.87841      0.16125         0.412348     -0.121675      0.430079
Pb       7.69491      7.98634      8.26855         1.280215     -0.175325      0.433209
Pb       7.73553      8.02163     12.46372        -0.013338     -1.114773      1.041833
Pb       7.71013     11.79901      4.03845         0.002404     -0.881368      0.686200
Pb       7.93975     12.07788     16.56041        -1.012336     -3.934515      1.961055
Pb       7.63982     11.48888      7.99873         0.543467      0.588019      2.256870
Pb       7.87782     11.46858     12.65186        -0.368687      1.095632     -0.026601
Pb      11.38158      3.82535      3.98279         1.188320     -0.088371      0.318177
Pb      11.78057      3.74091     16.54242        -0.142485      1.298252      0.575591
Pb      11.66430     15.45164      4.26930         0.568752     -0.605617     -0.128151
Pb      11.93993      0.00126      0.20998         0.648170     -0.670701      0.393081
Pb      11.54696      4.04177      8.50907         1.485407     -1.426921     -0.718407
Pb      11.60365      0.17638      8.13694         0.477633      1.088565      1.958993
Pb      11.55894      3.55587     12.35284         1.087255      0.467752      1.861152
Pb      11.55816     15.32569     12.34165         0.034491      0.832397     -0.369647
Pb      11.25998      7.59253      4.19236         1.370690      0.984718     -0.420963
Pb      11.90897      7.89724     16.56097        -1.045232     -1.063058      1.465323
Pb      11.87359      7.61743      8.67439        -0.121550      0.407969     -0.553344
Pb      11.59629      7.72972     12.58786        -0.112284     -0.218941     -0.228008
Pb      11.43125     11.49740      3.89735         0.677750      1.334076      1.906372
Pb      11.85935     11.44768     16.30327        -0.284492      1.890603      1.778080
Pb      11.34211     11.68583      8.24011         0.865144     -0.130616      1.066394
Pb      11.76569     11.58677     12.38247        -1.422435      0.658554      0.791501
Ti       2.16645      1.91591      2.16959        -1.279328     -1.736492      3.170126
Ti       1.84747      1.93626     14.79751         0.710426      0.000536     -0.853560
Ti       1.91864     13.81734      2.27863        -0.220747     -1.274012      0.964620
Ti       1.89243     13.94434     14.20889        -0.357268     -1.196321      3.695546
Ti      13.75075      2.19354      2.20474         0.367389     -1.354591      0.681213
Ti      13.66893      1.95198     14.78703         0.271214     -0.059279     -2.451560
Ti      13.70508     13.72523      2.08653        -0.203546     -1.043973      1.281061
Ti      13.74594     13.77130     14.39171        -0.239031     -0.758463      1.517596
Ti       1.83085      2.00694      6.43077         2.029588     -1.280332     -2.293560
Ti       1.96839     13.69186      6.62200         0.742201      1.014995     -1.139789
Ti      13.49816      1.89838      5.96649        -0.019763     -0.470409      1.341114
Ti      13.43808     13.45888      6.44096         1.150834      1.139768     -1.911332
Ti       1.78861      1.97408     10.20099         3.132575     -1.087017      0.475865
Ti       1.80202     13.63388     10.61950         1.741360      0.716589     -2.773951
Ti      13.79948      1.99109     10.56399        -1.966194     -1.347631     -0.385356
Ti      13.35913     13.64757     10.38047         0.958818      0.672177     -0.392384
Ti       2.06775      5.82535      2.08991        -0.817036      0.640766      0.455610
Ti       1.91433      5.86754     15.02591         1.420310     -0.826310     -0.134211
Ti      13.58495      5.99388      2.38139         0.218510      0.503848      0.134893
Ti      13.67769      5.87414     14.93989         0.095789     -0.771954     -0.907061
Ti       2.20697      5.89972      6.74468        -0.200568     -0.658838     -2.770858
Ti      13.76311      5.72203      6.28743         0.757364     -0.133599     -0.078506
Ti       2.00490      5.92243     10.43973         0.151443     -1.302250     -1.111109
Ti      13.58135      5.82996     10.80437         0.139307      0.330358     -1.717005
Ti       2.10910      9.76451      2.32807        -1.341261      0.570168      0.329949
Ti       2.19885     10.06333     14.66182        -0.813736      0.293328      1.652756
Ti      13.57996      9.93519      2.29822         1.321751     -0.771521      0.828828
Ti      13.56814      9.65404     14.58007         2.068098      1.283848     -0.605532
Ti       1.77850      9.70741      6.66640         1.616951     -0.360967     -2.661112
Ti      13.52388      9.53771      6.31782         0.552784     -0.132575     -2.181024
Ti       1.75741     10.00329     10.92613        -0.704722     -1.537388     -1.683792
Ti      13.39027      9.81034     10.61240         2.031414     -3.155901     -0.681092
Ti       6.17912      1.87901      2.29810        -1.485183     -0.466819      0.579658
Ti       5.92127      1.73355     14.87699        -1.527254      0.393365     -1.953995
Ti       5.79532     13.65234      2.28607        -0.594105      0.805100     -0.844506
Ti       5.76823     13.46479     14.83885        -2.189046      1.902446     -1.367456
Ti       5.79233      1.92527      6.19510        -1.689835     -1.479709      0.572309
Ti       5.93389     13.60214      6.46431        -1.962008      1.013187     -0.894079
Ti       5.77829      1.90712     10.41967        -0.834176     -0.674956      0.644153
Ti       5.82694     13.51535     10.77184        -0.692526      1.555303     -2.054499
Ti       5.87752      5.70081      2.11881        -0.043208      2.135682      0.258838
Ti       5.84423      5.80076     14.74184        -1.688270     -0.100781      1.387961
Ti       6.17204      5.93615      6.43016        -2.546380     -0.323148     -3.620379
Ti       6.06700      5.78628     10.63565        -1.981985     -1.211883     -1.283163
Ti       5.88594      9.96840      2.02077         1.244390     -1.412517      0.486609
Ti       5.93452      9.72956     14.78117        -2.078302      1.298323     -0.240618
Ti       5.79730      9.77750      6.33427        -1.058605     -0.493609      0.916944
Ti       5.58567      9.50198     10.68047         2.109635      3.503190     -0.825750
Ti       9.87472      1.74944      1.81644        -0.423556     -0.021615      3.064776
Ti       9.75175      1.86227     14.79180        -0.403283      0.846468     -0.739641
Ti       9.75836     13.47876      2.08747         0.596025      0.412949      1.010427
Ti       9.81467     13.70956     14.71341        -0.995357     -1.857648     -1.635229
Ti       9.54053      2.09599      6.41572         0.781194     -2.591202      0.695932
Ti       9.69234     13.60413      6.43265        -2.861942      0.807672     -0.357020
Ti       9.74162      1.82725     10.57412         0.352466     -0.846153     -2.491045
Ti       9.37163     13.41684     10.61165         1.793856      1.373734     -1.723991
Ti       9.77731      5.67631      1.94392        -0.545898      2.053378      2.593120
Ti       9.71894      5.92230     14.91000         0.132264     -0.415913     -0.598736
Ti      10.02322      5.82938      6.18586        -1.552413      0.026630     -0.691158
Ti       9.84259      5.74542     10.64481         0.057942      1.569082     -0.192948
Ti       9.76868      9.56723      2.20303        -1.554226     -0.333025      1.048703
Ti       9.75862      9.69155     14.51159        -1.518760     -0.620754     -0.584402
Ti       9.94034      9.58804      6.49933        -2.274130     -1.017396     -2.103313
Ti       9.61120      9.67865     10.51679         0.960153     -1.201504     -1.457620
O       1.93997      1.29119      0.55750        -1.290242      0.992693     -1.443724
O       1.81004      2.12544     13.02058         0.389989      0.459976      0.417753
O       1.92153     14.09761      0.54269        -0.004690     -0.310224      0.096251
O       1.71151     14.03152     12.47910         0.141395     -0.519443     -1.439812
O      13.42413      1.98080      0.37022         0.480018     -0.129181     -1.102740
O      13.81772      1.72610     12.96614        -0.566553      0.789887      0.911194
O      13.70784     13.34876      0.36497        -0.372003      0.606108     -1.772457
O      13.56630     13.63156     12.61366        -0.473597      0.175888      0.435545
O       2.06022      2.16006      4.56108        -0.135764      0.154143      0.557292
O       1.72958     13.31500      4.73200         0.184100     -0.184211      0.797120
O      13.41615      1.70419      4.16511         0.267077      1.048265      0.186280
O      13.41717     13.54983      4.61256        -0.579608      0.300220      0.891018
O       1.96377      1.93566      8.41896        -1.073102      0.385201      0.966720
O       1.88678     13.36878      8.47503        -0.710403      0.460156      2.550491
O      13.82750      1.65873      8.84370        -0.155216      1.610337     -0.537120
O      13.27681     13.91267      8.63812         0.076669     -1.244818     -0.546430
O       2.22046      5.87202      0.35132        -0.534213     -0.279670      0.998066
O       1.93171      5.33258     13.33061        -0.640610      0.511485     -2.588849
O      13.65725      6.12211      0.62148        -0.332310     -0.124572     -1.448742
O      13.85149      5.93972     13.17859        -0.506744      0.256305     -0.895315
O       2.26173      5.84510      4.91491        -0.696263      0.108100      0.319135
O      13.81668      5.56189      4.49977        -0.208832      0.974490      0.707653
O       1.70574      5.89484      8.67009         0.895756     -0.728221      2.992178
O      13.32247      5.79574      8.95149         0.188813     -0.489640      0.727469
O       2.20592      9.76060      0.63020        -0.239558      0.527936     -3.037473
O       2.29777      9.91212     12.95499        -0.485072     -0.497826     -1.278192
O      13.41357      9.77938      0.43593         0.463107      0.210291     -0.678821
O      13.35006      9.70927     12.85767         0.510656     -0.709489     -1.272939
O       2.05800      9.84491      4.58064        -0.570410     -0.581156      1.571722
O      13.55394      9.71416      4.43000         0.294437      0.192963      2.434910
O       1.24549      9.91736      9.19217         1.898128     -0.369212     -0.970869
O      13.70044      9.40171      8.90090        -0.877751      1.515204     -0.022363
O       6.26085      1.53192      0.58021        -0.825896      1.311823     -1.834967
O       5.55756      1.77089     13.11470         0.529394      0.171139      0.197876
O       5.52594     13.79343      0.46844         1.264997     -0.665368      0.630854
O       5.56495     13.69870     12.98356         1.150740     -0.220382      0.267338
O       5.76971      2.08413      4.43581         0.428499      0.183045     -0.682304
O       5.76328     13.23577      4.69957         0.808003      0.813137     -0.249187
O       5.52136      1.87422      8.69790         1.340793      0.013886     -0.919050
O       5.70618     13.70107      9.02669         0.777110     -0.633415     -1.190145
O       5.78761      5.88109      0.35707        -0.025116      0.098519     -0.189440
O       5.72881      6.08880     13.00136         0.679560     -0.654374     -1.972906
O       6.01900      5.59668      4.52860        -0.032763      0.524476      2.113788
O       6.26796      5.99933      8.81030        -0.636865     -0.117985      0.618347
O       5.99318      9.83547      0.26981         0.058537     -0.237452     -0.218130
O       5.88111      9.54212     12.87248        -0.704625      0.477852     -1.518946
O       5.55244     10.01357      4.65619         0.455183     -0.411637     -1.445384
O       5.89862      9.38725      8.73186        -0.185558      0.470654      0.910638
O       9.64466      1.44808      0.15204         0.240703      0.626798     -1.281281
O       9.77865      1.80837     12.84857        -0.448785      0.492662      0.049277
O       9.62658     13.53254      0.32780         0.931894      0.255415     -1.536717
O       9.40417     13.51093     12.93572         0.917692      0.164308      0.313299
O       9.53362      2.16551      4.69155         0.643313     -0.700052     -1.955099
O       9.69471     13.94118      4.68645         0.599306     -2.068246     -1.589616
O       9.70543      1.78104      8.73596        -0.400773      0.533772      0.237248
O       9.34545     13.53262      8.76722         0.640918     -0.829983      0.602293
O       9.60672      6.23463      0.38164         0.432732     -0.330035     -4.061629
O       9.97281      5.30787     13.27648        -1.788466      0.712401     -2.205669
O       9.68194      5.76916      4.27739         0.485866     -1.041389      1.532075
O      10.17648      5.73062      8.92840        -0.837496      0.023491     -1.413465
O       9.40789      9.84419      0.56247         1.203966     -0.574184     -3.097805
O       9.74832      9.51770     12.57869        -0.637589      0.503261      2.807847
O       9.84577      9.52459      4.56812        -0.003566      0.413237      0.583831
O       9.70373      9.65600      8.45998        -0.086442      0.436720      1.897488
O       3.99493      1.53271      2.17588        -0.062425      1.165285      0.923081
O       3.69662      1.62758     15.26573         0.953719      1.668551     -1.510926
O       3.92120     13.77792      2.77284         0.766182     -0.048794     -0.746314
O       3.55500     13.78335     14.72219         2.530336      0.930255     -0.046061
O      15.59489      1.77381      2.46696        -0.417283      0.380540     -0.189984
O      15.46281      1.90334     15.26362         0.384975      1.649483     -0.281420
O      15.53912     13.37682      2.49740         0.112955      1.302348     -0.045522
O      15.53755     13.27444     14.39191        -0.982962      1.516073      1.278684
O       3.94204      1.85787      6.60527        -0.636647     -0.016163     -0.226634
O       3.86635     13.70800      6.68246         0.445748     -0.902777     -0.187442
O      15.57169      1.82848      6.30880        -0.308225      0.833446      0.574243
O      15.25488     13.50461      6.74299         0.157072     -0.120137     -0.292045
O       3.72074      2.04539     10.66606        -0.094413     -0.207659      0.644256
O       3.70657     13.54393     10.87961         0.212203     -0.703349     -0.143152
O       0.06415      1.82078     10.83186        -1.096240      0.679028     -0.186601
O      15.40911     13.47538     10.52051        -0.352944      0.750776      0.254708
O       3.79955      5.76846      2.55230         1.496500     -0.308233      0.145722
O       3.92274      5.58877     15.01515         0.930011      0.846330      0.120302
O       0.14429      5.83866      2.59989         0.087083      0.727714      0.185827
O       0.02379      5.93915     15.39615        -0.981775     -0.685486     -0.533303
O       4.18342      5.83976      7.13223        -0.493942      1.127804     -1.049300
O      15.60091      5.87641      6.89080        -1.180382     -1.493960     -0.940855
O       3.92934      5.55359     10.69485        -0.913193      1.848711      0.129686
O      15.47190      5.83210     10.88290         1.223978     -0.618561      0.106747
O       4.14775      9.61206      2.37455        -1.855003      0.558883      0.513505
O       3.95854      9.79767     15.16660        -2.024996      0.902370     -0.526324
O       0.08081      9.85388      2.23301        -1.095584     -0.045307      1.056537
O       0.11899      9.75393     14.92768         0.157906      0.436197     -0.398277
O       3.80450      9.52735      6.96964        -0.385589     -0.080388     -0.474122
O      15.49215      9.69894      6.75938         0.799873      0.178674     -0.641560
O       3.88177      9.95481     10.67822        -1.395728     -0.664438      0.100864
O      15.46289      9.68424     11.31977         0.598554      0.269647     -0.107531
O       8.02918      1.88579      2.56366         0.585215      0.056462     -0.915819
O       7.73199      2.01041     14.79303         1.208721     -0.456224      0.282913
O       7.77706     13.54439      2.50994         0.178190      0.945535     -0.109919
O       7.61465     13.61804     15.07391         0.150315      0.006949     -1.684739
O       7.60130      2.12534      6.62950         2.015754     -0.090375      0.338394
O       7.80209     13.38454      6.66475        -1.860468     -0.736211     -0.094128
O       7.62737      1.95918     10.64156         1.740194     -0.445006      1.111730
O       7.67227     13.60506     11.07495        -1.287018      0.163011      0.041807
O       7.83565      5.83814      2.13308        -1.351312     -0.861281      0.971543
O       7.70931      6.21063     14.99901         0.403663     -1.374765     -0.094768
O       8.11430      5.63145      6.50431        -2.469745     -0.316859      0.377167
O       7.97670      5.77990     10.86334        -2.138310     -0.415552      0.912854
O       7.75156      9.57635      2.42698        -0.838797      0.057658      1.261576
O       7.67746      9.57105     14.63663         3.733557     -0.114030      0.329501
O       7.65155      9.81920      6.47599         0.690277     -0.352357     -0.023093
O       7.84647      9.44518     10.63826        -1.641388      0.113320      0.268466
O      11.69139      2.22969      2.19567        -1.355145     -1.056506      0.094544
O      11.53799      2.05710     14.87929         1.836649     -0.916056      0.306613
O      11.59735     13.77281      2.29203         0.300898     -1.846633      0.091183
O      11.60288     13.67586     14.70628         1.566557     -0.496507      0.272971
O      11.69947      1.54694      6.35920        -1.375491      1.181486     -0.348788
O      11.28918     14.16386      6.76776         4.231643     -2.533404     -0.632717
O      11.61162      1.71365     10.74599         0.024406      0.108362      0.464575
O      11.53132     13.46915     10.83253         0.128008     -0.030740     -0.007192
O      11.57280      5.79227      2.40767         2.124864     -0.948613      0.276352
O      11.56290      5.83961     15.08426         3.120454      1.069494      1.048671
O      11.79634      5.79766      6.53856         0.554339      0.367406      0.376992
O      11.57992      5.80715     11.23778         2.220706     -0.264323     -0.047232
O      11.66455      9.84820      2.50685        -0.778612     -0.920771     -1.273506
O      11.67822      9.86889     14.70627        -1.592202     -1.194559      0.601782
O      11.66237      9.30799      6.68923         1.692486      0.472264      0.135022
O      11.51538      9.44203     10.83990         2.118872      1.550426     -0.590685
O       1.88448      3.68047      2.16283         0.362565      2.031725     -0.000764
O       2.04255      3.74955     15.45519        -1.476292     -0.614856     -0.210042
O       1.88457     15.49366      3.14004         0.589098      0.652962     -1.753966
O       1.43070      0.06915     14.62771         0.073954     -0.762477      0.768810
O      13.96166      3.97986      2.46218        -1.050859     -0.675386     -0.371559
O      13.58713      4.01663     14.99203         0.448595     -1.469857      0.465237
O      13.52913     15.58823      2.12875         0.090267     -0.437606      0.083758
O      13.70701     15.57567     14.99688        -0.676887     -1.015410     -0.418520
O       1.96824      3.94508      6.88622        -0.453333     -0.672477     -0.455952
O       1.92264     15.53219      6.65926        -0.945566      0.495341     -0.243507
O      13.49963      3.72615      6.53437         0.743845      0.304310      0.292494
O      13.61865      0.03423      6.44267         0.511949     -0.732388      0.566909
O       1.91879      3.83598     10.69039        -1.407316      1.169154      0.227581
O       2.02005      0.03446     10.26007        -0.875077     -0.768370      1.047640
O      13.45741      3.80237     10.83486         0.580237      0.470007      0.003150
O      13.57246      0.01525     10.69391        -0.971113     -1.866270      0.442047
O       2.03664      7.87658      2.47358        -0.145534     -1.006814      0.836306
O       2.12402      7.66134     15.07558        -0.173823      2.065177     -0.715567
O      13.29565      7.81388      2.81176         1.584590     -0.713466     -1.086187
O      13.83481      7.90773     15.13176        -1.499805     -1.131029     -0.635408
O       1.90973      7.69770      7.07056         0.183333      2.866226     -0.906006
O      13.80551      7.67914      6.68578        -0.769245      0.333729     -0.531670
O       1.91447      7.71673     10.89271         0.361688      0.066630      0.466956
O      13.71901      7.74144     10.81425        -1.165718     -0.693105      1.406308
O       2.21277     11.89685      2.36095        -0.251885     -1.506652      0.475613
O       2.07416     12.03044     15.08860        -1.182466     -3.222065     -0.565255
O      13.48463     11.74500      2.45807        -0.105766     -0.792384      0.191522
O      13.66102     11.51237     14.76302        -0.333192      1.827872      0.633297
O       2.06323     11.54652      6.89020        -1.589224     -1.590358     -1.424987
O      13.30160     11.49023      6.66158        -0.472528      0.905998      0.525054
O       1.64481     11.79698     11.13621         0.966833     -0.534503     -0.450928
O      13.47831     11.62691     10.83068        -0.101582      0.684815     -0.740627
O       5.68901      3.79627      2.28367         0.795107     -0.255509      0.270363
O       5.94401      3.91546     15.08327        -0.011653     -0.623368     -0.541985
O       6.07234      0.06457      2.86190         0.079260     -1.683991     -0.979138
O       5.83292     15.48820     15.20442         0.044748      0.843323     -1.257287
O       5.61623      3.75520      6.61203         1.454440      2.350555      0.158279
O       6.01540     15.45998      6.48430         0.098542      0.377067      0.231821
O       5.77310      3.82146     10.76367         1.256304      2.227269      0.521470
O       5.39473      0.01301     10.67288         1.066659      0.265135      1.007528
O       5.87670      7.66262      2.59215        -0.301652     -0.265894     -0.265477
O       5.57916      8.03134     15.06442         0.885516     -3.918019     -0.618451
O       6.03307      7.77106      6.43113        -0.032952     -0.758907      0.270637
O       5.56656      7.75166     10.97765         0.629147     -2.366317     -0.504007
O       5.87490     11.79119      2.22738         0.070691     -0.082864      0.831964
O       5.66008     11.66681     15.05514         0.470561      0.918561     -0.611179
O       5.50457     11.57989      6.87318         1.910567      0.649275     -0.810370
O       6.03221     11.56990     10.89397        -0.483318      0.019298      0.141473
O       9.69190      3.81823      1.94773        -0.010668     -1.489299      0.396541
O       9.76971      3.85106     15.28734        -0.909750     -0.973946     -0.269431
O       9.89803     15.41977      2.39338        -1.000526      2.599629     -0.328665
O       9.50564     15.46880     14.73776         0.224717      1.954083      0.263127
O      10.19060      3.77371      6.46559        -0.870661      1.819764      1.224538
O       9.23999     15.54071      6.62008         0.156480      1.241836      0.457297
O       9.90816      3.70152     10.80172        -1.220722      0.964173      0.061828
O       9.63994     15.29800     10.81469         0.069863      2.245261      0.735827
O       9.75695      7.64349      2.45177         0.028296      1.807979      0.155046
O       9.83119      7.83104     14.94143         0.009954      1.717930     -0.638009
O       9.62793      7.57534      6.57183         0.462516      0.784147     -0.034834
O       9.82420      7.68935     10.65916        -0.381768     -0.597499      0.613715
O       9.40770     11.53052      2.49184         1.956130      1.883821      0.104577
O       9.39817     11.53984     14.79714         1.266200     -0.001960      0.121705
O       9.90692     11.50605      6.57229        -0.194771      1.473060     -0.486690
O       9.55437     11.54048     10.99269         0.538285     -0.275354     -0.837111
