  # total energy = -7881.58441919 
CRSYTAL
PRIMVEC
    15.464    0.0000000000000000    0.0000000000000000
     0.0000000000000000   15.464    0.0000000000000000
     0.0000000000000000    0.0000000000000000   17.350608
PRESSURE
-1.32577 -1.66634 -1.53165 -0.158912 -0.027106 0.016305
PRIMCOORD
320 1
Pb       3.77475      3.81687      4.24260         0.440627      0.161891      0.039387
Pb       3.68631      3.81982      0.05215         0.552975     -0.200424     -0.192089
Pb       3.94283     15.34020      4.32380        -0.297516      0.048100     -0.854770
Pb       3.71092     15.44938      0.05080         0.677718      0.015370     -0.033384
Pb      15.25601      3.83852      4.25873         0.418681      0.097932      0.032930
Pb       0.04218      3.98926     17.29124        -0.576579     -0.228620     -0.341705
Pb      15.42683      0.00387      4.34975         0.086772      0.202170     -0.113348
Pb       0.00245      0.03330     17.31565         0.085183     -0.149888     -0.101126
Pb       3.89539      3.81772      8.69260        -0.189317      0.340223     -0.513343
Pb       3.82182      0.08305      8.57643         0.303551     -0.338914      0.066309
Pb       0.10533      4.00260      8.74467        -0.105815     -0.325601     -0.423249
Pb       0.06771      0.04037      8.68548        -0.045427     -0.095747     -0.455055
Pb       3.92588      3.94397     13.10991         0.212663     -0.559027     -0.791417
Pb       3.78270      0.10936     13.01046         0.214167     -0.398352     -0.566049
Pb      15.43955      3.83288     13.06139        -0.238733     -0.026452     -0.810201
Pb      15.45222     15.34649     13.07987         0.301098      0.065301     -1.013363
Pb       3.96650      7.69770      4.37764        -0.298825     -0.306379     -0.789788
Pb       4.04224      7.82589     17.15694        -0.825265     -0.363163      0.799152
Pb       0.14350      7.74778      4.41829        -0.656103      0.168887     -0.586676
Pb       0.03575      7.70424     17.28565        -0.085276     -0.030346     -0.318311
Pb       3.72938      7.63549      8.65400         0.077779     -0.575953     -0.452151
Pb      15.20681      7.79095      8.58990         1.165952     -0.058695      0.656542
Pb       3.80830      7.73551     12.99132         0.402765      0.201119     -0.800124
Pb      15.44178      7.52402     13.04883        -0.255770      0.305907     -0.901748
Pb       3.86355     11.48735      4.32223        -0.234786      0.336766     -0.373019
Pb       3.82037     11.58265     17.27851         0.430921     -0.016405      0.421122
Pb       0.04133     11.61427      4.29051        -0.466670     -0.704160      0.156482
Pb      15.44088     11.57495      0.00724        -0.375183     -0.277649     -0.314311
Pb       3.85845     11.50860      8.68771        -0.111072      0.223209     -0.423798
Pb       0.08856     11.67367      8.71471        -0.021680     -0.430345     -0.669248
Pb       3.84900     11.63558     12.94159         0.271268     -0.018107     -0.912677
Pb       0.01619     11.41726     13.25297        -0.557355      0.023365     -1.488492
Pb       7.80767      3.87357      4.23180        -0.597637      0.035356     -0.688084
Pb       7.69231      3.80401     17.32075        -0.235053      0.190175     -0.605582
Pb       7.62215      0.01924      4.30914        -0.133531     -0.203233     -0.185788
Pb       7.76450      0.03600     17.34208        -0.371946      0.122860     -0.713569
Pb       7.77020      3.81278      8.65035        -0.622481     -0.127665     -0.492867
Pb       7.78266     15.30504      8.58135        -0.028466      0.513217     -0.010391
Pb       7.76252      3.93838     13.05461        -0.411252     -0.216925     -0.459112
Pb       7.58615     15.39117     12.93902         0.183734      0.386437     -0.308707
Pb       7.75395      7.65729      4.32544        -0.470886      0.102864     -0.702645
Pb       7.67719      7.74070     17.24123         0.087218     -0.281676     -0.339378
Pb       7.74522      7.72635      8.65752        -0.588575      0.051127     -0.572195
Pb       7.81488      7.72106     12.92599        -0.615602      0.371022      0.500255
Pb       7.71265     11.59467      4.30889         0.240060     -0.404570      0.394414
Pb       7.74154     11.71657     17.34547        -0.074958     -0.503688     -0.279936
Pb       7.81398     11.53979      8.66921        -0.266484     -0.298607     -0.864218
Pb       7.73887     11.68227     13.02039        -0.343015     -0.540687     -0.778992
Pb      11.70291      3.85138      4.16869        -0.506330      0.309771      0.165350
Pb      11.55333      3.78954     17.24077         0.436692     -0.066669     -0.444380
Pb      11.50170      0.07521      4.31988         0.315356     -0.185244     -0.529187
Pb      11.59387     15.44695     17.25378        -0.434511     -0.053632     -0.166802
Pb      11.37023      3.81201      8.51521         0.944993     -0.055373     -0.021633
Pb      11.64960      0.03611      8.63295        -0.218601     -0.284606     -0.219755
Pb      11.48900      3.87777     12.92498         0.327555     -0.392697     -0.177049
Pb      11.49637     15.45971     12.99270         0.207524      0.149511     -0.684802
Pb      11.45262      7.76041      4.38673         0.600592     -0.112368     -0.910897
Pb      11.45439      7.69713      0.03687         0.514800      0.373698     -0.660748
Pb      11.57743      7.75118      8.53067         0.071878     -0.101720      0.040920
Pb      11.59237      7.67082     12.92384         0.452019      0.497437     -0.110347
Pb      11.54156     11.71576      4.26865         0.112288     -0.475860     -0.358411
Pb      11.60356     11.55307      0.03982        -0.135804     -0.350900     -0.381953
Pb      11.76503     11.68034      8.73532        -0.343722     -0.372564     -0.682434
Pb      11.45951     11.53409     13.17004         0.382331     -0.535769     -0.882667
Ti       1.84008      1.92191      2.43070         1.448590      0.207544     -0.638664
Ti       1.95792      1.88341     15.36676         0.294947      0.160874     -0.208189
Ti       1.81655     13.48729      2.35063         2.461185      0.470439     -0.594994
Ti       1.94267     13.44982     15.36263         0.277222      1.499067     -1.421314
Ti      13.42474      1.84265      2.20817         0.273239      0.654911      0.090770
Ti      13.58070      1.81630     15.26412        -0.968257      1.747150      0.963268
Ti      13.55746     13.41925      2.27987        -1.970238      0.707522     -0.112386
Ti      13.51100     13.53224     15.32035        -0.474889     -0.611995     -0.309508
Ti       1.96414      1.89119      6.56514        -1.258673      0.695497     -0.009431
Ti       1.95641     13.47616      6.63342        -0.258770     -0.269300     -1.305767
Ti      13.58915      1.88117      6.68647        -0.030282      0.727879      0.097076
Ti      13.50626     13.51170      6.62682         0.145079     -0.412968      0.264668
Ti       1.92744      1.93951     10.93959        -0.925902     -0.186614      0.272234
Ti       1.98004     13.53639     10.92875         0.348388     -0.221118      0.133043
Ti      13.56988      1.83273     10.87430         0.031652      0.522997      1.581271
Ti      13.56840     13.41368     11.00325         0.207225      0.597167      0.503533
Ti       1.80829      5.83633      2.24364         0.885266     -0.396137      0.039199
Ti       2.01075      5.77836     15.26886        -0.893001      0.708191      0.515091
Ti      13.47159      5.77068      2.11479        -0.245416      0.801091      0.171698
Ti      13.47886      5.79706     15.31054         0.292524     -0.203621      0.941689
Ti       1.79777      5.73052      6.50456         1.540529     -0.245845      1.068917
Ti      13.57568      5.72332      6.60462        -0.692824     -0.217092      0.818058
Ti       1.92048      5.69593     11.00983        -0.897885      0.809288     -1.276704
Ti      13.46976      5.63660     10.87993         0.919676      0.979345      0.844147
Ti       1.87300      9.58344      2.29249         0.381917     -0.011361     -0.422485
Ti       1.90270      9.70879     15.22402         0.021324     -1.631834      0.937625
Ti      13.47725      9.57209      2.25989        -0.312640     -0.094366     -0.071145
Ti      13.51432      9.65650     15.34808        -1.422484     -1.039906     -0.749387
Ti       1.91525      9.53500      6.62347        -1.079090      0.749010      0.428232
Ti      13.52674      9.67713      6.63889         0.323720      0.416812     -0.489900
Ti       1.92014      9.61126     10.90669        -0.126777     -0.005512      2.019703
Ti      13.58878      9.64848     11.04149        -0.508358     -0.511685      0.367527
Ti       5.77158      1.84466      2.23414        -0.586354      0.245326      0.612241
Ti       5.78969      1.77022     15.27779        -0.130454      1.008391      0.017076
Ti       5.81779     13.36841      2.30246        -0.979236      1.423408      0.823694
Ti       5.77261     13.45296     15.24998         0.195470      1.647545      0.712510
Ti       5.81044      1.88192      6.60563         0.340768     -0.247026     -0.430015
Ti       5.73274     13.41662      6.64948         0.513416     -0.041959      0.102708
Ti       5.78974      1.89354     10.93328         0.164303      0.316926      0.052094
Ti       5.80208     13.47192     10.81960        -0.993618      0.078879      1.558857
Ti       5.69062      5.75765      2.27563         0.188970      0.010445      1.025914
Ti       5.77184      5.71577     15.31451         1.271360     -0.269003      0.549513
Ti       5.74739      5.73704      6.58721        -0.346189      0.239037      0.723693
Ti       5.76788      5.77511     10.96050        -0.312330     -0.152090      1.000100
Ti       5.74596      9.67176      2.32478         0.145165     -1.736772     -0.170271
Ti       5.73901      9.72491     15.23711         1.103306     -0.601045      0.221560
Ti       5.68411      9.55482      6.58591         1.547129      0.611106      1.598411
Ti       5.79484      9.60200     10.94613         0.476428     -0.198273      0.668404
Ti       9.59606      1.86325      2.19181         0.316909      0.730194      1.170091
Ti       9.65221      1.87423     15.18124        -0.544640      0.029637      0.527142
Ti       9.58100     13.51977      2.28029         0.988060     -0.785331      0.110993
Ti       9.59985     13.43780     15.24060         0.408169      0.688838      0.541728
Ti       9.63785      1.86580      6.58496         0.048376     -0.095306      0.796327
Ti       9.62753     13.46063      6.60824         0.237958      0.010316      0.325083
Ti       9.65327      1.92888     10.94900        -0.831227     -0.745644      0.279785
Ti       9.75189     13.50329     11.04271        -1.499352      0.099185     -0.388064
Ti       9.65715      5.78159      2.21414        -0.306426     -0.780170      0.916406
Ti       9.66331      5.72822     15.32117        -0.935301      0.653245      0.045344
Ti       9.64552      5.78592      6.57079        -0.165454      0.094268      1.394096
Ti       9.63253      5.78899     10.91591        -0.195300     -0.225016      0.513911
Ti       9.60003      9.57989      2.30275         0.234593      0.617594      0.473125
Ti       9.59060      9.62716     15.34896         0.546373     -0.766260      0.750127
Ti       9.65827      9.63889      6.56561        -0.952998      0.687958      0.492221
Ti       9.68926      9.62465     10.89059         0.036489      0.508346      2.280735
O       2.00793      1.95212      0.59719        -0.354535     -0.136513      0.463770
O       1.99024      1.77414     13.61374        -0.300333      0.634194      0.065463
O       1.89059     13.59055      0.51219        -0.200143     -0.415085      0.749849
O       1.91573     13.52831     13.53438        -0.053821     -0.225357      1.249556
O      13.37516      1.89037      0.44296         0.187113     -0.207358      0.179528
O      13.56687      1.88310     13.53203        -0.064697     -0.390329     -0.634225
O      13.50084     13.48809      0.49673         0.386724     -0.235008      0.224944
O      13.54704     13.70013     13.53709         0.027681     -0.474405      0.558921
O       1.93830      1.87193      4.79143        -0.439557     -0.343285     -0.384411
O       1.89382     13.48040      4.72629        -0.254735      0.070449      1.370942
O      13.55268      1.96156      4.92091         0.008490     -0.474242     -0.662843
O      13.45043     13.40150      4.86001         0.347323      0.657837     -0.316837
O       1.91280      2.10766      9.17924         0.204980     -0.625961     -0.863903
O       2.17923     13.46796      9.16269        -0.686837      0.352999     -0.299569
O      13.51431      1.95060      9.15704        -0.149544     -0.040811     -1.512550
O      13.41291     13.34302      9.20472         0.259167     -0.049142      0.629717
O       1.90876      5.85169      0.41884        -0.071846     -0.462660      1.078389
O       1.91554      5.71565     13.48743        -0.173255      0.072725      0.195733
O      13.37056      5.74998      0.33988         0.328926     -0.306687      0.420639
O      13.58334      5.87960     13.53089        -0.297517     -0.310643      0.245509
O       1.73181      5.71029      4.74365        -0.132462      0.566012     -0.080273
O      13.54122      5.68875      4.87649         0.347710      0.357007     -0.817892
O       1.86647      5.73297      9.12591         0.390285     -0.262613      1.987891
O      13.51835      5.56887      9.12528        -0.173325      0.381040     -0.030958
O       1.91614      9.51564      0.52093        -0.072640      0.416445      0.019093
O       1.92152      9.77392     13.46917        -0.151442     -0.033782      0.280522
O      13.39823      9.77299      0.49351         0.484970      0.180012     -0.332064
O      13.53946      9.63107     13.47937        -0.043516      0.131601      1.578841
O       1.83537      9.51545      4.84203        -0.096266      0.403660     -0.356432
O      13.72642      9.60227      4.89391        -0.571227      0.039951     -0.093636
O       1.94510      9.61168      9.20160        -0.013490     -0.051524     -1.778823
O      13.64380      9.80234      9.26363        -0.342074     -0.059525     -0.459811
O       5.89170      1.73834      0.49843        -0.499910      0.539162     -0.865193
O       5.69921      1.88868     13.49059        -0.020934     -0.034359     -0.007530
O       5.93329     13.33137      0.57945        -0.111002     -0.108962     -0.986443
O       5.79126     13.37540     13.53703        -0.093444      0.089028     -1.399578
O       5.94394      1.72447      4.81815        -0.240679      0.486391      0.592525
O       5.92945     13.35860      4.88284        -0.522587      0.556216     -0.537103
O       5.59688      1.92888      9.14234         0.317985     -0.251153      0.265604
O       5.69581     13.49594      9.06542         0.293389      0.038876     -0.194273
O       5.77188      5.83921      0.52136        -0.073576     -0.217734     -0.214362
O       5.85890      5.66249     13.57478        -0.303991     -0.001860     -0.758243
O       5.75197      5.80906      4.82603         0.163858     -0.139909      0.053752
O       5.71140      5.77496      9.22287        -0.029291      0.090937     -0.033291
O       5.60743      9.70820      0.56477         0.345116     -0.041753     -0.881846
O       5.83933      9.66612     13.53290        -0.548997      0.437398     -1.023676
O       5.57674      9.59839      4.86326         0.330167     -0.155399     -1.008102
O       5.91758      9.50432      9.19749        -0.424482      0.281149     -0.566484
O       9.63820      1.83928      0.46453        -0.011008      0.084427     -0.390568
O       9.66093      1.92635     13.39485         0.043755      0.110415      0.450934
O       9.48358     13.40523      0.51258         0.096655      0.093050     -0.177908
O       9.51834     13.46698     13.46326         0.594577     -0.094036      0.038270
O       9.67193      1.74923      4.85600        -0.276451      0.131860     -1.237583
O       9.65060     13.42211      4.84332         0.009900      0.495119     -0.258127
O       9.59736      1.89552      9.17723         0.542968      0.379261     -0.717982
O       9.62159     13.51212      9.25529         0.113152     -0.192983     -0.053050
O       9.48811      5.78269      0.48925         0.617913     -0.047254     -0.604224
O       9.57179      5.71155     13.51719         0.278964     -0.200379      0.216074
O       9.68696      5.80679      4.85549        -0.375525      0.320501     -0.823839
O       9.63372      5.81142      9.14288         0.038301     -0.215242      0.224771
O       9.66326      9.62486      0.54855        -0.193608     -0.090125     -0.581635
O       9.75590      9.62162     13.63503         0.026119      0.089422     -1.248180
O       9.57297      9.46699      4.81443         0.651002     -0.019068     -0.595041
O       9.54279      9.59070      9.19241         0.186117      0.218836     -1.559452
O       3.89427      2.00911      2.72222        -0.554943     -0.674162     -0.073787
O       3.90018      1.81008     15.80363        -0.989475      0.760184     -0.051255
O       3.89508     13.47597      2.65920        -0.357855     -0.634423      0.173595
O       3.90965     13.51279     15.67307        -1.756723      0.000383      0.401613
O      15.42205      1.91544      2.66147        -0.117493     -0.380420     -0.020323
O      15.41272      1.95232     15.71830         0.808976     -0.262242      0.053252
O      15.41570     13.64578      2.65051         0.167713     -0.564314      0.084942
O       0.03179     13.57740     15.69283        -0.226564     -0.471030      0.110738
O       3.76402      1.87487      6.86502         1.950255      0.193593      0.493440
O       3.84128     13.32005      6.84875        -0.522301      1.043209      0.258848
O      15.45525      1.69114      7.01235         0.475320      0.466821     -0.068228
O       0.01951     13.55483      7.06516        -0.143040     -0.115987     -0.047944
O       3.69501      2.07954     11.34297         2.265463     -0.635784      0.413688
O       3.90704     13.55395     11.34190        -0.115563     -0.432137      0.190682
O      15.44535      1.80379     11.23405        -0.205292     -0.003421      0.585240
O      15.45402     13.66187     11.30197        -0.234691     -0.479675     -0.142367
O       3.75227      5.72250      2.68110         0.827777      0.093546     -0.250026
O       3.89124      5.76657     15.58134        -0.729490     -0.117487      0.169347
O      15.35120      5.78882      2.46190         1.052283     -0.223453      0.273375
O      15.43396      5.76127     15.71045        -0.089439     -0.119610     -0.198325
O       3.76972      5.80491      7.00558         0.577707      0.180107     -0.203394
O       0.00330      5.86703      7.09407        -0.523813     -0.271406     -0.430833
O       3.78221      5.71287     11.43956         0.657293      0.076558     -0.076417
O      15.43278      5.79929     11.36820        -0.314040      0.064635      0.155685
O       3.88569      9.67381      2.67404        -1.256544     -0.305231      0.485545
O       3.79910      9.62777     15.61334        -0.273635      0.558362     -0.001113
O      15.35824      9.63567      2.57168         1.542181      0.160545      0.403540
O      15.42297      9.68797     15.65891         0.801913      0.305512      0.083081
O       3.77001      9.60903      6.94375         0.600112     -0.178936      0.491910
O      15.44283      9.65692      7.06169        -0.010528     -0.041771      0.238272
O       3.89430      9.63022     11.40280        -1.118367     -0.084506     -0.092087
O      15.46010      9.60923     11.40205         0.394419      0.231550      0.209347
O       7.68118      1.87774      2.49444         1.389436     -0.321267      0.853632
O       7.65677      1.80968     15.64587         1.151751      0.326371      0.082397
O       7.71453     13.47504      2.73540        -0.014573      0.221211      0.027563
O       7.75443     13.44116     15.53441        -0.153451     -0.132403      0.768695
O       7.74736      1.87742      7.01629        -0.863534      0.301501      0.091960
O       7.67459     13.47576      6.99661         0.920693     -0.037567      0.447876
O       7.74076      1.86686     11.19360        -1.428342      0.055579      0.360856
O       7.59379     13.54521     11.45115         0.691407     -0.595264     -0.651920
O       7.76063      5.73961      2.71593        -0.534105      0.238628      0.106149
O       7.76714      5.75301     15.77182        -1.024771      0.127768     -0.122529
O       7.61967      5.77622      7.08925         1.427218     -0.102006     -0.484536
O       7.64790      5.90431     11.43775         0.749142     -0.694072     -0.790789
O       7.67205      9.49366      2.65449         0.099890     -0.125559      0.181065
O       7.63924      9.58305     15.57496         0.579846      0.494394      0.614859
O       7.70782      9.71286      6.81309        -0.398078     -0.086786      0.742527
O       7.75120      9.56410     11.35086        -0.021976     -0.055989      0.061182
O      11.56897      1.95799      2.70088        -0.306898     -0.187725     -0.076337
O      11.52173      1.80942     15.66219         0.747679      0.366284     -0.267811
O      11.52038     13.40786      2.58533         0.228828     -0.080020      0.339854
O      11.51635     13.47605     15.63419         0.851460      0.295094     -0.030558
O      11.62240      1.81849      6.95885        -0.500108      0.589011      0.442342
O      11.55994     13.51301      7.03229        -0.052988      0.126818      0.115483
O      11.51539      1.99945     11.29768         0.943070      0.019356      0.288910
O      11.53262     13.48294     11.49506         1.066950     -0.129056     -0.189584
O      11.64493      5.82843      2.66317        -0.910897     -0.464297      0.058178
O      11.51541      5.72804     15.68818         0.498177      0.170937     -0.197140
O      11.57792      5.77556      6.83227        -0.447569      0.118054      0.842324
O      11.54205      5.65191     11.27987        -0.125509     -0.108687      0.083640
O      11.57208      9.68117      2.65124        -0.428902     -0.212528      0.590360
O      11.60349      9.56182     15.77879        -0.076907      0.508791     -0.168922
O      11.56244      9.54944      6.99764         0.681094      0.491912     -0.090015
O      11.61926      9.69435     11.28664        -0.773280      0.084501      0.283756
O       2.00694      3.86154      2.78053        -1.360200     -0.277727     -0.935895
O       1.91883      3.89083     15.79144         0.244440     -0.724006     -0.300351
O       2.02142     15.40764      2.70550        -0.528118      0.235020      0.016752
O       1.92935      0.04213     15.70869        -0.253742     -1.050414      0.537491
O      13.49256      3.85087      2.64135         0.049087     -0.355112     -0.164568
O      13.43145      3.82895     15.63896         0.121998     -0.112568     -0.063207
O      13.37708      0.03589      2.64370         0.519283     -1.058187      0.235582
O      13.55268     15.38681     15.71732        -0.154616      0.518293      0.201210
O       1.93168      3.85598      6.86230        -0.676660     -0.466444      0.264067
O       1.98400     15.43100      7.08212        -0.068064     -0.474551     -0.213426
O      13.71612      3.85193      6.89046        -0.525020     -0.523489      0.437359
O      13.52113     15.36480      7.06752        -0.143650      0.602343      0.112775
O       1.77624      3.82857     11.41198        -0.125781      0.416279      0.122717
O       1.99101     15.45782     11.33916        -0.038464     -0.088843     -0.057817
O      13.69003      3.82232     11.36088        -0.774757     -0.058115      0.228777
O      13.43873     15.44663     11.12792        -0.462868     -0.714476      0.648655
O       1.93254      7.69624      2.71897        -0.395458     -0.247826      0.029578
O       1.83451      7.67398     15.63502         0.344557      0.760530     -0.509148
O      13.48135      7.71827      2.42120        -0.048784     -0.416382      0.408803
O      13.48350      7.74567     15.77039         0.330446     -0.462308     -0.341318
O       1.84144      7.69378      6.96339         0.140013      0.048490     -0.005321
O      13.52966      7.72745      7.03283        -0.371655     -0.292625      0.046346
O       1.86936      7.69172     11.29904         0.635197     -0.134347      0.438386
O      13.35429      7.68973     11.28518         0.610710     -0.389117     -0.059742
O       1.96142     11.46852      2.60194        -0.801722      1.560738      0.247600
O       1.94060     11.58111     15.69790        -0.338597     -0.083249      0.009900
O      13.47962     11.59979      2.73510         0.673178      0.343604     -0.253570
O      13.51888     11.59061     15.70550         0.200553      0.417424     -0.184712
O       1.85984     11.58764      7.01587         0.078064     -0.289289      0.055600
O      13.51983     11.59648      6.93843        -0.224620     -0.238611      0.670471
O       1.91164     11.60424     11.14443         0.041946     -0.055165      0.814821
O      13.55141     11.57058     11.56317         0.042661      0.809828     -0.378684
O       5.81960      3.79003      2.74475         0.111489      0.868068     -0.395443
O       5.83394      3.80779     15.62886        -0.269998      0.196556      0.469356
O       5.67462     15.38996      2.51515         0.686591     -0.319324      1.013058
O       5.78984     15.39747     15.63838         0.168786     -0.646136      0.191223
O       5.78888      3.82541      7.08613        -0.194068     -0.358005     -0.440416
O       5.75893     15.42844      6.90844        -0.270188      0.059166      0.479135
O       5.73611      3.78884     11.28203         0.323632      0.852720      0.394572
O       5.78036      0.00010     11.42408        -0.548367     -0.031848     -0.686464
O       5.67177      7.66732      2.75190         0.359183     -0.252161     -0.155009
O       5.71528      7.75661     15.54278         0.250000     -0.377455      0.569956
O       5.84417      7.67199      7.05432        -0.666594      0.473425     -0.365656
O       5.68384      7.69335     11.45451         0.005789     -0.534745     -0.135455
O       5.81623     11.47522      2.78359         0.191815      1.191069     -0.003703
O       5.74582     11.67049     15.67401        -0.037489     -2.247874      0.462851
O       5.65960     11.55537      7.01926         0.589063     -1.049598      0.268369
O       5.71603     11.48680     11.23026         0.390478      1.457668      0.038987
O       9.66501      3.83672      2.61176        -0.027554     -0.450222      0.164608
O       9.59590      3.79492     15.70522         0.087919     -0.301761     -0.225701
O       9.76924     15.40735      2.52990        -0.593085      0.284948      0.403496
O       9.67080      0.02849     15.67472        -0.374611     -1.366333     -0.248071
O       9.59859      3.84640      6.89041         0.150080      0.261183      0.449723
O       9.58383      0.02748      7.02609         0.301767     -1.364203      0.041206
O       9.48113      3.84837     11.32434         0.461122      0.954150     -0.103640
O       9.58658     15.41316     11.34935         0.519678     -0.035376      0.269948
O       9.68939      7.62842      2.64918         0.052216      0.711122      0.416856
O       9.61682      7.66599     15.74631         0.037308      0.167304      0.034933
O       9.63026      7.83192      7.11515        -0.077024     -2.172219     -0.390470
O       9.70743      7.70260     11.48726         0.072418     -0.486687     -0.971724
O       9.49189     11.45884      2.71871         0.420498      0.945868     -0.134455
O       9.74913     11.48751     15.65627        -0.602748      1.369862      0.051300
O       9.67793     11.58374      6.92656        -0.153651     -0.048700      0.425450
O       9.60253     11.53245     11.36800         0.008256      0.362523      0.108559
