  # total energy = -7879.51314583 
CRSYTAL
PRIMVEC
    15.464    0.0000000000000000    0.0000000000000000
     0.0000000000000000   15.464    0.0000000000000000
     0.0000000000000000    0.0000000000000000   17.350608
PRESSURE
-2.06388 -2.05186 -5.75765 0.104892 0.011053 0.007695
PRIMCOORD
320 1
Pb       3.97953      3.99427      4.49154        -0.313176     -0.188265     -0.484931
Pb       4.01394      3.85044     17.26209        -0.571854     -0.316432      0.410965
Pb       3.72486      0.13026      4.31527         0.123492     -0.249146     -0.313461
Pb       3.93880      0.02259     17.31681         0.134649     -0.048022     -0.126567
Pb       0.25031      3.86260      4.45335        -0.224164     -0.237257     -0.290198
Pb      15.39895      3.71540     17.33420         0.555890      0.268041     -0.246544
Pb      15.41780     15.41205      4.22953         0.072538      0.389528     -0.139677
Pb      15.42929     15.43385     17.31104         0.295462      0.196188      0.432810
Pb       3.87792      3.89048      8.66092        -0.577056      0.042953     -0.500696
Pb       3.82014     15.35006      8.62692         0.376251      0.448680     -0.415686
Pb      15.35531      3.71034      8.63106         0.654227      0.692310     -0.011018
Pb      15.30769     15.36309      8.58946         0.174706      0.042895     -0.074248
Pb       3.84602      3.67524     12.86699        -0.313572      0.338798      0.328512
Pb       4.00644     15.24448     13.03949        -0.712450      0.686555      0.059753
Pb       0.07454      3.92205     12.94082         0.196355     -0.454216     -0.390126
Pb       0.04602      0.13055     13.01670         0.343903     -0.195705     -0.707681
Pb       3.70826      7.80454      4.31944        -0.384725     -0.170409     -0.914644
Pb       3.63287      7.60723      0.06390         0.241583      0.012613     -0.618441
Pb      15.35060      7.71984      4.29274        -0.078574      0.286216     -0.282993
Pb      15.35336      7.68147     17.28134         0.120225     -0.072470     -0.470715
Pb       4.01692      7.87167      8.70768        -0.356657     -0.433782     -0.644906
Pb       0.16823      7.58411      8.80658        -0.355057     -0.265454     -0.565107
Pb       3.90715      7.68033     12.88998        -0.395144     -0.116925      0.091914
Pb       0.05593      7.90125     12.94661        -0.310460     -0.087448     -0.166419
Pb       3.84153     11.64010      4.31064        -0.531125      0.231699     -0.319533
Pb       3.90496     11.54932     17.32937         0.066380      0.038752      0.106483
Pb      15.26911     11.56364      4.31057         0.086064     -0.204790     -0.323463
Pb       0.01010     11.57419     17.27738        -0.228128      0.412369     -0.189528
Pb       3.80032     11.63164      8.63899         0.170435      0.086076     -0.482371
Pb      15.24950     11.48811      8.60716         0.567856      0.338598     -0.045473
Pb       3.86038     11.47962     13.04791        -0.376628      0.296719     -0.720910
Pb      15.32354     11.73800     12.84372         0.456437      0.001850     -0.194956
Pb       7.62940      3.86357      4.36316         0.127640      0.095633      0.166035
Pb       7.74965      3.94212      0.01506        -0.479943     -0.440939     -0.237858
Pb       7.77263     15.40412      4.26109        -0.134688      0.038264      0.122171
Pb       7.62676      0.04226      0.13570        -0.137533     -0.238431     -1.283485
Pb       7.78405      3.86290      8.60601        -0.091615      0.148191      0.156224
Pb       7.66428      0.15511      8.61417         0.628074     -1.042952      0.500433
Pb       7.74088      3.69755     12.94089        -0.427677      0.002104      0.524710
Pb       7.89602     15.40113     13.11592        -0.265350      0.370889     -0.430923
Pb       7.66735      7.82633      4.32793         0.260693     -0.502648     -0.428072
Pb       7.76318      7.63817      0.02064        -0.303226      0.091476     -0.611424
Pb       7.87367      7.64201      8.72419        -0.267861      0.267721     -0.076296
Pb       7.61708      7.66137     12.97612         0.536799     -0.243891     -0.113466
Pb       7.69545     11.59889      4.26036         0.314470      0.498010     -0.391449
Pb       7.64385     11.40033     17.34256         0.378109      0.484594     -0.043578
Pb       7.54936     11.68480      8.60065        -0.041161      0.371154     -0.233507
Pb       7.76225     11.49957     12.96879        -0.208390      0.632802     -0.212728
Pb      11.47188      3.81100      4.41841         0.152508      0.030493     -0.225150
Pb      11.58671      3.99249      0.03977         0.205692     -0.479118     -0.291154
Pb      11.66050     15.35556      4.24805        -0.057204     -0.011822     -0.042463
Pb      11.58302      0.11862      0.13978        -0.232686     -0.487041     -0.250439
Pb      11.75185      3.84777      8.78815        -0.116107     -0.096507     -0.669568
Pb      11.47101     15.39929      8.54691         0.088307      0.072644      0.240121
Pb      11.72036      3.80650     13.14856        -0.168109      0.306109     -0.795543
Pb      11.63409     15.31803     13.15370        -0.226561      0.001782     -0.661069
Pb      11.61728      7.69695      4.22465         0.235528      0.441067     -0.181393
Pb      11.65710      7.68494     17.22859        -0.020186      0.349609     -0.112042
Pb      11.64360      7.58975      8.77626         0.179537      0.153280     -0.678211
Pb      11.46104      7.74729     13.10698        -0.003245      0.081515     -0.495712
Pb      11.50678     11.51568      4.26955         0.197647      0.107037     -0.583008
Pb      11.52825     11.59156     17.29799        -0.059533      0.118391      0.261684
Pb      11.35995     11.45229      8.56914         0.173807      0.527674     -0.077513
Pb      11.63729     11.65878     12.86038         0.150365     -0.307956      0.451176
Ti       1.90097      1.91997      2.25724         0.990706      0.386360     -1.364645
Ti       1.93756      1.89437     15.38771         0.262120      0.937833     -1.477432
Ti       1.87458     13.56631      2.25746         0.820205      0.576132     -1.173831
Ti       1.92362     13.59880     15.32168        -0.116569     -0.045287     -0.372954
Ti      13.49797      2.03254      2.40667         0.505610     -0.988078     -0.340727
Ti      13.47368      1.91663     15.32461         0.674607      0.070165      1.140621
Ti      13.54922     13.47882      2.21564        -2.160441      0.216067     -0.794632
Ti      13.48335     13.62154     15.34990         0.394605     -0.505571     -1.068237
Ti       1.94101      1.82278      6.66349         0.480836      1.231886      0.077797
Ti       1.86546     13.57848      6.59386         0.386293     -1.624554     -1.497986
Ti      13.53831      1.92344      6.56771        -0.656383     -0.251164     -1.244503
Ti      13.43906     13.46739      6.64251        -0.159157      0.268639     -0.742372
Ti       1.96135      1.89988     10.79548        -0.853491      0.075590      0.090473
Ti       1.96951     13.61109     10.73293        -0.515768     -1.152092      1.127214
Ti      13.47930      1.87020     10.86731         1.036933      0.203544      0.148319
Ti      13.48957     13.56799     10.85764         0.292149     -0.379482      0.190344
Ti       1.79552      5.75082      2.28303         1.294974     -0.153820     -0.521009
Ti       1.88000      5.79126     15.18903        -0.033049     -0.643131      0.378279
Ti      13.50552      5.71455      2.22640        -0.900055      1.414241     -1.383557
Ti      13.56086      5.77486     15.27323        -0.042095      0.025116     -0.773975
Ti       1.93876      5.81964      6.63148        -0.213843     -0.627706     -0.486353
Ti      13.54074      5.84150      6.70291         0.319155     -0.152654      0.799788
Ti       1.89058      5.79162     10.96413         0.462744     -0.525174     -1.718721
Ti      13.47386      5.73103     11.10210         0.418628      0.357420     -0.983535
Ti       1.78043      9.73861      2.17279         0.487542     -0.467258      0.128126
Ti       1.87527      9.73508     15.29480         0.050130     -1.080180     -0.458101
Ti      13.45113      9.60865      2.14989        -0.388568      0.231562      0.008753
Ti      13.50523      9.79121     15.27986         0.135509     -0.912116     -1.510343
Ti       1.93468      9.69638      6.63138        -0.516302      0.534126     -0.403938
Ti      13.48721      9.59434      6.71324        -0.072763     -0.494092     -1.709534
Ti       1.95357      9.75931     10.90055        -0.320483      0.431241      0.088145
Ti      13.45343      9.63050     10.90048         0.835859     -0.101968      0.382686
Ti       5.86472      1.95759      2.38966        -1.712467      0.356809     -0.530685
Ti       5.83887      1.90859     15.24547         0.382470     -1.240719     -0.593480
Ti       5.73499     13.62889      2.33625        -0.036376     -0.695828     -1.425333
Ti       5.77892     13.36262     15.23041         1.009156      1.944260      0.572889
Ti       5.85431      1.96535      6.69686        -1.016814     -0.516098     -1.397118
Ti       5.73719     13.64654      6.48477         0.311275     -0.981446      0.553449
Ti       5.80707      1.93037     10.88936         0.274703     -1.175517     -0.091713
Ti       5.76990     13.51129     11.10280         0.669906     -0.373329     -1.256746
Ti       5.75950      5.76248      2.38513        -0.595278     -0.444517     -1.135223
Ti       5.75040      5.73935     15.29456         0.373891      0.361949     -1.192336
Ti       5.76815      5.82822      6.66739         0.222853     -0.663664     -1.102753
Ti       5.78765      5.75445     10.92397        -0.405732     -0.748665     -0.422356
Ti       5.68331      9.63431      2.32132        -0.774033      0.369418     -1.327209
Ti       5.72660      9.58508     15.28014         0.148633     -1.018481      0.895867
Ti       5.77639      9.68971      6.50730         0.016637      0.738685      0.856107
Ti       5.81022      9.57681     10.91293         0.880759      1.392128     -0.570103
Ti       9.67479      1.95927      2.32672        -0.367361     -0.148833     -0.855193
Ti       9.72992      1.89881     15.34654        -1.968289     -0.786778     -0.226333
Ti       9.66148     13.56791      2.21198         0.213457     -0.838709     -0.401607
Ti       9.66977     13.47736     15.29312        -0.623440      0.567149      2.199639
Ti       9.67167      1.99418      6.72335         0.741352     -0.521682      0.686540
Ti       9.60140     13.54748      6.54381        -0.370764      0.230967     -0.882964
Ti       9.65112      1.95816     10.90923        -0.369468     -1.050508     -0.694278
Ti       9.68646     13.62279     10.94339        -0.665080      0.199058     -1.014673
Ti       9.62285      5.76474      2.41083        -0.063457      0.300745      1.945498
Ti       9.63311      5.71746     15.31692         0.012458      0.540591     -0.609269
Ti       9.65518      5.81752      6.65435        -0.232357     -0.048434     -0.507557
Ti       9.57225      5.75090     11.04502         0.459267      0.674033      0.426586
Ti       9.57870      9.66068      2.27195         1.026355      0.238943     -0.506203
Ti       9.64488      9.67187     15.25984         0.152811     -0.546914      0.102250
Ti       9.61453      9.62925      6.53050        -0.008352      0.105580     -1.280405
Ti       9.61319      9.76224     10.99941        -0.220282     -1.401554     -0.656465
O       1.95673      1.99872      0.40681        -0.382686     -0.096545      1.209779
O       1.86345      1.89898     13.45788         0.115772      0.042012      1.994174
O       1.85561     13.66936      0.36626        -0.002759     -0.732238      1.591514
O       1.91015     13.64211     13.53403        -0.146858      0.053099      1.015179
O      13.46188      2.08882      0.58077        -0.279687     -0.073100      0.808840
O      13.46665      1.75526     13.58992        -0.112554      0.228693     -1.181419
O      13.43561     13.46222      0.41171         0.505688     -0.031362      0.447968
O      13.53941     13.67103     13.41630        -0.142475     -0.171742      1.653799
O       1.86594      1.75458      4.85186        -0.211409      0.201187      0.314983
O       1.98549     13.59118      4.68627        -0.790545      0.066521      1.395445
O      13.45146      1.78077      4.68505         0.302265      0.547052      1.716464
O      13.42887     13.45484      4.79805         0.218793      0.084007      1.209875
O       1.97535      1.92547      8.99426        -0.050514     -0.283777      0.611332
O       2.07667     13.53104      8.94209        -0.097814      0.214710      0.828854
O      13.52926      2.07866      9.10831         0.274357     -0.319451     -0.093779
O      13.43145     13.43345      9.08942         0.117752      0.066906      0.161374
O       1.83579      5.76925      0.46599         0.171948      0.277991      1.440438
O       1.81876      5.66656     13.36645         0.330826      0.425634      1.156074
O      13.37894      5.74310      0.34107         0.331650     -0.219049      1.510228
O      13.53173      5.72610     13.37374        -0.165160     -0.138964      0.955383
O       1.83658      5.77224      4.70931         0.214043      0.195776      1.384808
O      13.51053      6.07955      4.99703         0.229255     -0.261876     -1.158338
O       1.92715      5.84257      9.02130         0.088867      0.196903      1.624771
O      13.54161      5.78410      9.21901        -0.318185     -0.289128      0.905898
O       1.76910      9.79406      0.34500         0.173198     -0.289176      0.995939
O       2.00276      9.63167     13.49326        -0.296971      0.071581      0.589764
O      13.45261      9.65430      0.34665         0.289978      0.085386      0.218729
O      13.51353      9.68856     13.38816         0.035179     -0.086309      1.551030
O       1.95292      9.77762      4.84389         0.004300     -0.226141      0.463732
O      13.36934      9.49822      4.78377         0.464705      0.229707      2.232542
O       2.03062      9.75013      9.09417        -0.217219     -0.558458      0.735055
O      13.49509      9.71506      9.08503        -0.238194     -0.131575      0.897923
O       5.81296      2.03919      0.58262         0.302553     -0.310235      0.408487
O       5.88149      1.84279     13.43512        -0.369940      0.346621      0.504585
O       5.82572     13.65511      0.46095        -0.165863     -0.239487      1.561769
O       5.76485     13.26943     13.41632         0.073436      0.438799      0.303762
O       5.85967      2.02136      4.87080        -0.120177     -0.353923      0.898943
O       5.73765     13.52169      4.72526         0.110670      0.125442     -0.415202
O       5.81686      1.90374      9.03864         0.023027      0.012756      1.461281
O       5.76952     13.33741      9.26967         0.030819      0.537843      1.318991
O       5.82759      5.55773      0.52360        -0.137878      0.650982      0.862548
O       5.87065      5.75531     13.45044        -0.457840      0.176482      1.454065
O       5.80375      5.67947      4.77709        -0.313382      0.507157      1.781781
O       5.72937      5.74409      9.11643         0.196938      0.181601      0.583486
O       5.67650      9.63594      0.48689         0.203828      0.193845      1.224518
O       5.64738      9.49124     13.49953         0.388918      0.294871      0.326438
O       5.67830      9.74481      4.72837        -0.166280     -0.308029      0.178532
O       5.96488      9.64566      9.06330        -0.775856     -0.250622      1.406074
O       9.75042      1.89214      0.49839        -0.260266      0.236373      1.248101
O       9.62358      1.79710     13.53988         0.561840      0.565923      0.594310
O       9.71418     13.57678      0.37169        -0.309632     -0.219889      1.460080
O       9.73113     13.49376     13.55660         0.361682      0.315106     -0.997413
O       9.65645      2.04171      4.99375         0.190591     -0.150469     -0.756780
O       9.65469     13.51820      4.68256        -0.233694      0.109140      1.683959
O       9.40605      1.92632      9.06242         1.205475      0.308529      1.662757
O       9.68674     13.55404      9.13489        -0.013883     -0.111832      1.010983
O       9.50476      5.74984      0.72685         0.258195     -0.105235     -2.730096
O       9.72654      5.74322     13.55369        -0.256317      0.000206     -0.313676
O       9.49468      5.74651      4.88363         0.590188      0.329662      0.125077
O       9.47213      5.76262      9.28075         0.442199      0.274290     -0.486789
O       9.59841      9.73532      0.47016        -0.169725     -0.351059      0.505745
O       9.76091      9.50265     13.44998        -0.335096      0.574459      0.849464
O       9.66812      9.62525      4.63695        -0.093796     -0.026066      2.041514
O       9.47172      9.72297      9.19158         0.553949     -0.087155      0.680388
O       3.86213      1.76980      2.58456        -0.473894      0.585649      0.362752
O       3.93632      1.97254     15.69619        -1.095727     -0.054784     -0.230970
O       3.76905     13.80250      2.54563         0.180291     -0.726904      0.021087
O       3.91223     13.55754     15.52950        -1.135402     -0.731608      0.336702
O       0.01268      2.06087      2.70849        -1.406460     -0.597438     -0.147627
O      15.41363      1.85176     15.74938         0.301020     -0.204562     -0.245781
O      15.32467     13.60866      2.58554         1.497935     -0.243619      0.290623
O      15.41479     13.81224     15.68721         0.346566     -0.857648     -0.382664
O       3.84622      1.71807      6.94705         0.573613     -0.377648     -0.017777
O       3.86000     13.75112      6.85227         0.338201     -0.124220      0.175936
O      15.37021      1.98203      7.01734         0.838016     -0.549358     -0.183919
O      15.37444     13.38419      7.02683        -0.129079      0.229433     -0.350854
O       3.79971      2.01059     11.31882         1.448101     -0.266478     -0.556230
O       3.88311     13.44403     11.43357         0.184743     -0.271791     -0.341200
O       0.07472      1.80566     11.16842        -0.379691      0.211023      0.354204
O       0.09723     13.49066     11.12026        -0.686372     -0.164295      0.015831
O       3.82366      5.66227      2.65636        -0.651925      0.679201      0.050701
O       3.84629      5.82824     15.64809        -0.290392     -0.269692     -0.167838
O      15.33948      5.82332      2.62152         1.022339     -0.043918      0.240855
O      15.39412      5.87786     15.67685         0.548903     -0.404024     -0.474188
O       3.86417      5.67663      6.99640         0.069890      0.694448     -0.197872
O       0.08409      5.65557      7.02896        -0.342363      0.367913     -0.100462
O       3.84924      5.61590     11.25008         0.730546      0.504460      0.313131
O       0.06261      5.74663     11.30119        -1.205433      0.219216      0.072122
O       3.70652      9.67735      2.56887         0.366557      0.132497      0.201050
O       3.80497      9.72435     15.70801        -0.093482     -0.020820     -0.150038
O      15.29685      9.61345      2.65569         1.846010      0.607947     -0.053330
O      15.35755      9.43756     15.61385         0.881398      0.865907     -0.065785
O       3.81961      9.68709      7.04649         1.065043     -0.351948     -0.262406
O      15.45925      9.74650      6.89976        -0.126300      0.196089      0.243918
O       3.94170      9.69655     11.37432        -0.212155     -0.641846     -0.606199
O       0.02078      9.81255     11.20458         0.088426     -0.603696      0.207911
O       7.72214      1.94044      2.72509         1.010416      0.237712     -0.039096
O       7.70374      1.84816     15.65479         0.550008     -0.003571      0.422547
O       7.66685     13.42985      2.65887         0.169874      0.243026     -0.074741
O       7.73441     13.51034     15.47986         0.071886     -0.216812      0.266809
O       7.81070      1.96114      7.03815        -1.184283      0.499379     -0.280186
O       7.72978     13.48073      6.94188         0.080317     -0.035843     -0.272544
O       7.77765      1.70747     11.32978        -1.264990      0.456916     -0.147710
O       7.85639     13.62591     11.43391        -1.335057     -0.371378      0.030831
O       7.63611      5.71250      2.72077         0.852171      0.308696      0.125295
O       7.70516      5.75686     15.79184        -0.137042      0.380608     -0.164263
O       7.68786      5.85263      7.04911        -0.057082     -0.609341      0.011846
O       7.67761      5.78395     11.39406         0.077964      0.148621      0.004084
O       7.62488      9.69289      2.58812        -0.194031      0.113318      0.255356
O       7.68759      9.67047     15.66673         0.157494     -0.142079     -0.285758
O       7.69544      9.71848      6.68975        -0.362261     -0.218000      0.273255
O       7.74009      9.45968     11.36197        -0.355919      0.538301      0.319277
O      11.47591      1.94760      2.84376         0.916881     -0.109895     -0.422969
O      11.52376      2.04301     15.73987         1.430060      0.197158     -0.171144
O      11.56507     13.59363      2.59825        -0.421731     -0.456633     -0.009931
O      11.65446     13.35128     15.68200        -0.211868      0.496005     -0.536889
O      11.72623      1.91643      7.10576        -1.263454      0.183121     -0.205684
O      11.49921     13.64409      7.02444         0.699255     -0.795715     -0.425915
O      11.65339      2.02699     11.06023        -1.299096     -0.177678      0.631426
O      11.59421     13.53743     11.35846         0.255319      0.042851     -0.052319
O      11.60729      5.74878      2.67665        -0.634243      0.506042      0.217042
O      11.59907      5.67305     15.59821        -0.466600     -0.046113      0.291352
O      11.59898      5.89998      6.98961        -0.199298      0.224124      0.503098
O      11.52888      5.61280     11.28708         0.615342      0.220846      0.250951
O      11.59821      9.67134      2.54685        -1.030910     -0.276690      0.186410
O      11.61989      9.76714     15.67377        -0.505709     -0.712493     -0.264589
O      11.52100      9.47980      7.04769        -0.070039      0.346717     -0.063456
O      11.60531      9.68608     11.33043        -0.517053     -0.249074     -0.476765
O       1.84338      3.83432      2.69732         0.090456      0.598618     -0.024043
O       1.81010      3.89358     15.68659         0.181490      0.011216     -0.482936
O       1.79568      0.03923      2.60259        -0.527958     -0.100534      0.219654
O       2.00901      0.06514     15.77588        -0.145774     -0.415631     -0.495008
O      13.43974      3.94501      2.67461         0.018174     -1.207290      0.367989
O      13.64489      3.79628     15.61896        -0.643176      0.611562     -0.181542
O      13.35290      0.00724      2.51467         0.645149      0.476763      0.373456
O      13.40639      0.03020     15.77739        -0.491621     -0.073592     -0.089298
O       2.14041      3.73419      6.84727        -0.932409      0.388365      0.062345
O       1.77551     15.35036      7.02097        -0.296486      1.649633      0.287125
O      13.53600      3.88352      6.96104        -0.372241     -0.118315     -0.018992
O      13.52848     15.37972      7.01904         0.196258      0.483042     -0.217924
O       1.88215      3.87683     11.17234         0.055550     -0.841566      0.347110
O       2.05402     15.39713     11.17412         0.116887      0.710240     -0.122743
O      13.56918      3.78487     11.34352         0.176106      0.389088      0.327672
O      13.63809     15.40774     11.16571        -0.614654      0.604847      0.128613
O       1.95002      7.83608      2.58464        -0.510209     -0.980442     -0.031244
O       1.83897      7.68178     15.69189         0.694595      0.215597     -0.126901
O      13.49713      7.73077      2.50997        -0.332239     -0.735715      0.332375
O      13.43536      7.64642     15.68969        -0.391345      0.291007     -0.348679
O       1.90608      7.70771      6.86249         0.192235      0.405676      0.209846
O      13.66056      7.73479      7.21428        -0.176576     -0.007228     -0.009664
O       1.92072      7.71287     11.38855         0.316464      0.642497     -0.546870
O      13.65820      7.69871     11.24922        -0.625687      0.442121     -0.011440
O       1.82365     11.68207      2.57302        -0.133718     -0.543154     -0.078835
O       1.76165     11.62165     15.56844        -0.005977      0.140361      0.173402
O      13.47181     11.56181      2.64723         0.219666      0.337801     -0.022099
O      13.69735     11.62962     15.54441         0.115031      0.059936      0.057192
O       2.05262     11.74166      6.99532        -0.134804     -1.493596     -0.195796
O      13.38938     11.50869      7.01758        -0.171857      0.388465     -0.226931
O       2.04563     11.61387     11.23527         0.001202     -0.377550      0.062105
O      13.48094     11.60839     11.38979         0.213130      0.173109     -0.627026
O       5.73163      3.85972      2.87585         0.232733     -0.646893     -0.559473
O       5.79772      3.78754     15.61163         0.152120      1.310940      0.059495
O       5.87986      0.04161      2.71360         0.276765     -0.312597     -0.042719
O       5.74453     15.38532     15.64695         0.264731      0.321133     -0.045573
O       5.72652      3.81364      6.99746         0.323711      0.393902      0.104596
O       6.03986     15.44241      6.97550        -0.847479      0.518044     -0.280271
O       5.97095      3.76941     11.28105        -0.566732      0.012839     -0.133726
O       5.63992     15.43611     11.36445         0.536179     -0.164622     -0.472573
O       5.65999      7.68159      2.68969         0.274109      0.793769      0.090911
O       5.77117      7.69144     15.70217         0.043343      0.268132     -0.110638
O       5.72188      7.67414      6.92495        -0.087725      1.412086     -0.090366
O       5.77637      7.62984     11.22397        -0.382254      0.745501      0.245683
O       5.50632     11.64228      2.61129         0.743871     -0.224600     -0.098139
O       5.82435     11.54894     15.82182        -0.535769     -0.286741     -0.647319
O       5.73734     11.68883      6.97822        -0.157522     -1.039489     -0.402447
O       5.99814     11.46545     11.41593        -0.378272      0.068334     -0.336760
O       9.74083      3.83620      2.78461        -0.685407      0.135353     -0.247055
O       9.53989      3.87891     15.68928         0.402679     -0.508810      0.125862
O       9.55745     15.41893      2.62760         0.055358      0.878508     -0.028930
O       9.79386     15.42669     15.70418         0.047016      0.134495     -0.291262
O       9.75152      3.95389      7.09111        -0.218451     -0.489556      0.054025
O       9.62945      0.01129      7.07225        -0.010464      0.206302     -0.513854
O       9.44084      3.76577     11.36762         0.838133      0.550837     -0.228637
O       9.71358      0.04822     11.42528         0.737772     -0.365432     -0.227908
O       9.55385      7.74264      2.65571        -0.055581     -0.225633      0.096441
O       9.63596      7.70358     15.68554         0.276496      0.094216      0.202563
O       9.53514      7.73673      7.04147         0.156149      0.331751     -0.026685
O       9.63166      7.69651     11.39290         0.599250     -0.461989     -0.092393
O       9.68178     11.60217      2.65985        -0.340848     -0.243780     -0.156178
O       9.69238     11.52763     15.66443        -0.494316      0.183116     -0.178905
O       9.67247     11.61827      6.84047         0.439598     -1.071172      0.192572
O       9.56823     11.63192     11.33482         0.411043     -0.635004      0.059991
