  # total energy = -7842.73513169 
CRSYTAL
PRIMVEC
    15.6080000000000005    0.0000000000000000    0.0000000000000000
     0.0000000000000000   15.6080000000000005    0.0000000000000000
     0.0000000000000000    0.0000000000000000   16.6239999999999988
PRESSURE
3.03744 3.61761 0.122524 -0.091995 -0.01561 0.267549
PRIMCOORD
320 1
Pb       4.24793      4.04567      4.27774        -0.607051     -1.021827     -0.359051
Pb       4.12574      3.65858      0.00885        -1.011136      1.051992      0.533247
Pb       4.27078      0.07401      4.18534        -0.669793      0.413454     -0.059325
Pb       3.95113      0.19462      0.40516        -0.711723     -0.076919     -0.266077
Pb       0.39528      3.91025      4.20272        -0.911436      0.906878      0.508512
Pb       0.06254      3.87626      0.20828         0.476430      0.846332      0.130840
Pb      15.45815      0.08218      4.16551        -0.502515     -1.011401      0.070785
Pb       0.03889      0.09349      0.05254         0.434611     -0.965704     -0.194592
Pb       4.02593      3.72276      8.18845        -0.677912      0.425944     -0.179213
Pb       3.94185      0.00500      8.79510         0.703689      0.599078     -1.313318
Pb      15.54501      3.73072      8.30840        -0.109097      0.085342     -0.739915
Pb      15.20605     15.50448      8.06837         1.104548     -0.069929      0.524115
Pb       3.64302      3.83228     12.26513         2.103472      0.335855      0.521431
Pb       3.80226      0.41996     12.38602         0.238450     -0.996386      0.586371
Pb       0.26825      3.90961     12.45020        -1.158330     -0.896095      0.450214
Pb      15.19732     15.31729     11.91160         0.460504      1.298513      1.624516
Pb       3.95196      8.25718      4.16664        -0.569803     -1.427671      0.173747
Pb       4.01353      7.97164      0.03709        -0.640161     -0.331333     -0.432222
Pb       0.18485      7.65566      4.14853        -0.207202      0.659470      0.878048
Pb       0.11916      8.23942     16.49558        -0.315259     -2.068205      0.418970
Pb       4.20018      7.91932      8.77212        -1.003114     -0.702823     -0.637850
Pb       0.01918      7.80397      8.60952         1.038638      0.024287     -1.363932
Pb       3.79995      7.47659     12.81947         0.085265      0.961395     -0.423577
Pb      15.59231      7.54970     12.53641         0.750011      0.619259      1.541441
Pb       3.65906     12.06088      4.70947         0.421401     -1.044659     -0.964543
Pb       3.41335     11.89998      0.36379         0.752790      0.211521     -0.831822
Pb       0.24753     11.61693      4.15166        -1.812977      0.215176      0.770511
Pb      15.38966     11.62706     16.34879         1.102836      1.505457      1.254226
Pb       3.74383     11.51417      8.35982         0.133749      0.273810     -0.226696
Pb      15.42382     11.59190      8.19706         0.072620      0.136274     -0.260246
Pb       4.47566     11.86664     12.50640        -2.482395     -0.429354      1.081747
Pb      15.22648     11.81116     12.50695         1.033512      0.101760     -1.104739
Pb       8.19188      3.98064      3.59574        -2.552667     -0.872127      2.565466
Pb       7.82309      3.99547     16.41792         0.211289     -1.166868      1.127680
Pb       8.42121     15.58204      4.13082        -2.142600     -0.002039     -0.253861
Pb       7.60603     15.25222     16.55946         0.867105      1.386898     -0.398942
Pb       7.46089      4.05377      7.91991         1.828579     -0.763022      1.096185
Pb       7.67029      0.05258      8.39407         0.148483     -0.822867     -0.720913
Pb       7.91726      3.90869     12.41951        -0.383287      0.629166      0.509103
Pb       8.22867      0.30975     12.76464        -2.015020     -1.343321     -0.539103
Pb       7.51366      7.87791      4.06222         1.144730     -0.378332      0.669432
Pb       7.60891      7.91735      0.26502        -0.009986     -0.751758     -1.264543
Pb       7.68327      8.08564      8.29074         0.590169     -1.153230     -0.339826
Pb       7.68303      8.07823     12.53693         0.252505     -2.133339      0.786302
Pb       7.66305     11.84486      4.02641         1.246060     -0.169367      0.811834
Pb       8.01327     12.15299     16.59858        -1.106265     -1.496251     -0.167198
Pb       7.59000     11.39008      7.95291         1.240551      2.078311      1.390551
Pb       7.93703     11.40567     12.78422        -0.101846      1.470345     -1.088911
Pb      11.26384      3.74465      3.91297         2.214621      0.090181      0.188462
Pb      11.85589      3.69868     16.53819        -0.820450      1.493232      0.683415
Pb      11.68416     15.32050      4.35022         0.100703      0.531174     -0.575403
Pb      12.12475     15.59745      0.34043        -0.996847     -0.010956     -0.743481
Pb      11.54614      4.07416      8.62230        -0.147457     -0.116445     -1.052998
Pb      11.59144      0.33171      8.12368         0.141396     -1.597857      0.115751
Pb      11.52545      3.37527     12.40465         1.018838      2.582647      1.028787
Pb      11.48161     15.19305     12.28512         0.812992      0.609144     -0.023864
Pb      11.10309      7.52160      4.22419         1.676785      0.554927     -0.658046
Pb      12.00312      7.92597     16.61038        -0.251218     -0.767501      0.069942
Pb      11.99064      7.54386      8.88696        -1.059579      0.555757     -1.427590
Pb      11.55141      7.67824     12.69297         0.174552      0.409049     -0.076349
Pb      11.32370     11.44566      3.87431         1.620026      0.308398      1.556833
Pb      11.93400     11.39748     16.20403        -1.240549      0.603874      2.072463
Pb      11.18562     11.67976      8.26504         0.457454      0.162119     -0.077413
Pb      11.74448     11.55900     12.36824        -1.418154     -0.420648     -1.407005
Ti       1.94982      1.84750      2.46387         1.278317      0.432174     -1.351117
Ti       1.84307      1.86367     14.76957         2.813166     -0.244023     -0.078838
Ti       1.90636     13.73369      2.46740        -0.679024     -0.002955      0.115652
Ti       1.76577     13.72521     14.33176         0.803398      0.345630      3.783002
Ti      13.70412      2.04486      2.13240        -0.618357      0.972967      3.109666
Ti      13.73405      1.94708     14.53200        -0.922509     -1.404510     -0.793091
Ti      13.58529     13.51146      2.01428         0.456321     -0.406891      2.814351
Ti      13.48914     13.66828     14.59943         1.165798      2.038337     -0.450541
Ti       1.91663      1.91476      6.16983         0.217389      0.874813      0.713274
Ti       1.84761     13.79462      6.62728        -0.371911     -0.451467     -1.576054
Ti      13.50833      1.90304      6.06080         0.158964      2.109764     -1.078027
Ti      13.43722     13.42044      6.23152        -1.698924     -0.155049     -0.361673
Ti       1.81935      1.86585     10.26244        -1.371105      0.444314     -1.105448
Ti       1.96616     13.65575     10.39366        -0.381758     -2.220226     -0.233378
Ti      13.46436      1.86281     10.48655         2.559467      0.661143     -0.735180
Ti      13.40666     13.49661     10.15470        -1.158721      0.018848      0.560768
Ti       2.07369      5.85373      2.24389         0.333734      0.525682     -1.044801
Ti       2.06295      5.72587     14.92012        -1.831103      1.085457      1.036860
Ti      13.72694      6.06686      2.30211        -0.911243     -1.406835     -0.098901
Ti      13.78086      5.75422     14.82276        -0.503351      1.478222      0.618863
Ti       2.13342      5.85953      6.60432         0.001260     -0.273025     -0.741095
Ti      13.83270      5.73408      6.26889        -0.887825     -0.354641     -2.263998
Ti       2.01515      5.76761     10.57397         0.159815      1.143822     -3.053750
Ti      13.74943      5.70376     10.85020        -2.294963     -2.187069     -0.913468
Ti       1.98668      9.78931      2.10859        -0.656219     -0.625818      1.096626
Ti       2.00911      9.90996     14.60586         1.272794     -0.471050     -0.048690
Ti      13.75236      9.71117      2.36313        -0.152589      2.111860      0.762316
Ti      13.80472      9.75381     14.39831        -2.822045     -2.557763      1.452850
Ti       1.78527      9.61344      6.38623         0.332731      1.087787     -0.030950
Ti      13.61122      9.49159      6.28878        -2.317889      1.015409     -2.068944
Ti       1.83520      9.77053     10.74756         1.926473      0.789795     -0.409402
Ti      13.73922      9.52144     10.59824        -3.853311      1.677330     -1.392600
Ti       6.04787      1.96316      2.15187        -0.532845      0.616336      1.656465
Ti       5.81379      1.88772     14.58642         0.276784      0.890490     -0.710770
Ti       5.84578     13.68263      2.22245         0.454559     -0.310424      0.603615
Ti       5.52317     13.87016     14.50622         2.570258     -3.105683     -1.178983
Ti       5.73540      1.84062      6.22893         1.996241      0.596832     -0.145854
Ti       5.72360     13.66023      6.30580         2.228313      0.154855      2.008048
Ti       6.01760      1.96142     10.52828        -1.207164     -2.969718     -1.434323
Ti       5.77509     13.79797     10.41061         3.279996     -1.147653      0.780300
Ti       5.76863      5.95240      2.04686         1.804606     -1.299897      3.071763
Ti       5.77279      5.79709     14.68020         1.315002     -0.575872     -0.905175
Ti       5.91258      5.93796      6.14027         0.330647     -0.055553     -1.295190
Ti       5.86417      5.81410     10.59134         1.904198      1.021410     -0.272640
Ti       5.86320      9.87228      2.18879        -0.136619     -0.202374     -0.977924
Ti       5.74322      9.82078     14.69568         1.820246      0.552752      0.278276
Ti       5.71795      9.65738      6.29746         1.679857      1.632202     -1.638523
Ti       5.73888      9.78576     10.69396         0.311026     -0.496472     -0.602138
Ti       9.81748      1.82340      1.82369        -0.321039      0.273362      1.327936
Ti       9.84117      1.89617     14.74889        -0.122951     -0.093379     -0.009416
Ti       9.92141     13.68345      1.95742        -0.469710     -3.773408      0.283793
Ti       9.80598     13.55633     14.47326        -1.369723      1.120046      1.007275
Ti       9.61704      1.86067      6.35690        -1.835146      1.700467     -1.381667
Ti       9.52290     13.58820      6.28109         1.051671     -0.801042     -0.426345
Ti       9.73864      1.81591     10.31541        -1.923453      0.925914     -0.776102
Ti       9.45333     13.48828     10.54661        -1.272533     -1.873118     -2.186945
Ti       9.76835      5.94572      1.87610         1.082692     -1.332500      0.517016
Ti       9.78582      5.91752     14.63779        -0.937964     -1.663115      0.372688
Ti       9.86264      5.74050      6.32675        -0.595289     -0.521595     -0.128890
Ti       9.80108      5.79845     10.68245        -1.270116     -0.402477     -0.490723
Ti       9.57360      9.70402      1.91779         1.574531      0.360077      1.896003
Ti       9.65210      9.64789     14.79456         0.028339     -0.438063     -0.950526
Ti       9.81438      9.49642      6.24486        -0.618021      0.590545      0.216566
Ti       9.63369      9.51551     10.39959         0.896497      2.969709      1.187130
O       1.91236      1.72627      0.60470         0.506899     -0.067862     -1.600446
O       2.13766      2.34105     13.02259        -1.391555     -1.250029     -0.297450
O       2.09110     13.77450      0.71086        -0.382677     -0.074480     -1.335960
O       1.82927     13.86029     12.68830        -0.341291     -0.161346     -4.321686
O      13.76152      1.69839      0.38600         0.249424      0.363649     -1.602366
O      13.62397      1.93828     12.69735         0.334266     -0.344171      1.699443
O      13.62617     13.64891      0.19525         0.178620     -0.516509     -0.816210
O      13.41715     13.66697     12.70636         0.798622     -0.380328      0.576435
O       2.13326      2.13832      4.27213        -0.607008     -0.221867      2.575314
O       1.88976     13.43971      4.80000        -0.050998      0.296785     -1.709283
O      13.53990      1.86281      4.25872        -0.224390     -0.226148      0.494952
O      13.26527     13.79632      4.38788         1.612415     -1.389626      1.734887
O       1.74591      1.97577      8.50315         0.526275     -0.610666      0.160045
O       1.78765     13.45354      8.50152         0.867345      0.429076      2.658137
O      13.45775      2.13027      8.70812        -0.099070     -1.212164      0.217256
O      13.19819     13.57138      8.43552         0.920311      0.645440     -0.362974
O       2.08633      6.16282      0.46664         0.146306     -0.530359      0.489555
O       1.92079      5.74159     13.02829        -0.010713     -0.514287     -0.846083
O      13.67895      6.10678      0.53709         0.769482     -0.113076     -1.119504
O      13.76700      5.83992     13.03786         0.458457     -0.285115     -0.890754
O       2.00201      5.79649      4.78820         0.203688      0.266596     -0.497631
O      13.84751      6.01838      4.44062        -0.285207     -1.352986      1.056755
O       2.01674      5.76031      8.65056        -0.773517      0.335176      2.719558
O      13.34731      5.58595      8.92065         1.057593      1.216466      0.682095
O       1.84810     10.00510      0.24048        -0.030848     -0.345728      0.982219
O       2.05174      9.75168     12.88063         0.007959      0.422941     -0.999549
O      13.93836      9.90620      0.27765        -0.917384     -0.534348      0.630160
O      13.51806      9.56461     12.70603        -0.029286      1.126204     -1.836927
O       1.96563      9.66787      4.58215         0.238610      0.292131      0.770369
O      13.55535      9.82133      4.33487        -0.280853     -1.193455      2.521240
O       1.75427      9.76982      8.88264        -0.902336     -0.445041      0.763914
O      13.66069      9.68123      8.69750         1.059031     -1.621934      1.257232
O       5.69360      2.01339      0.37317         0.704467     -1.587928     -0.832253
O       5.65600      1.78566     12.70855         0.196260      0.481822      1.104308
O       5.96214     13.57451      0.40959        -0.951330      0.326361     -0.569601
O       5.89354     13.63712     12.69679        -1.621742      0.772091      1.147144
O       5.88063      1.99567      4.44171        -0.370142     -0.486752     -0.059461
O       5.90227     13.62444      4.55031        -0.764988     -0.368249     -0.884055
O       5.95685      1.71884      8.50398        -1.345724      0.674368      1.268608
O       5.90944     13.63478      8.56162        -0.868615      0.888152      1.019840
O       5.78931      5.89007      0.30218        -0.018574     -0.059538     -1.170815
O       5.80338      5.44479     12.88443        -0.804904      1.030353     -0.075549
O       5.86497      5.68379      4.26105         0.742061      1.158413      2.576782
O       5.98711      5.86783      8.71258        -0.617938      0.201035      1.460949
O       6.00113      9.54696      0.21529        -0.380067      0.676363      1.491316
O       5.56821      9.67980     12.81376         0.764471     -0.309407     -1.187874
O       5.73706      9.76079      4.39768        -0.032438      0.202462      0.314858
O       5.81030      9.70657      8.70043         0.032948     -0.615780     -0.183471
O       9.78794      1.66235      0.08208         0.028648      0.173984     -0.770973
O       9.71103      2.15978     12.68140        -0.535414     -1.914655      1.112040
O       9.92569     13.60928      0.13936        -1.048957      0.228314     -0.269685
O       9.78995     13.52874     12.68866        -0.579466     -0.381604      0.282132
O       9.77208      1.87462      4.34447        -0.242486      0.095834      0.734039
O       9.77104     13.34656      4.37946        -0.527841      2.016826     -0.126505
O       9.65561      1.91819      8.35359         0.593409     -0.687981      2.837174
O       9.40993     13.43267      8.72408         0.401240      0.665676     -0.276643
O       9.89853      5.78615      0.16418        -0.695391      0.806226     -1.567256
O       9.49737      5.79805     12.76430         1.601944     -0.582608      1.766458
O       9.85854      5.53052      4.34150        -0.333182      0.943787      1.574124
O       9.77817      5.88926      8.77039         0.934420      0.144564      0.788772
O       9.73409      9.42643      0.10912        -0.987280      0.557288     -0.955773
O       9.51361      9.73909     12.54877         0.696629     -0.345692      2.368021
O       9.77879      9.58976      4.44593        -0.071194     -0.057013      0.457466
O       9.51545      9.74738      8.54100         0.372195     -1.036873      0.783414
O       4.10413      1.76240      2.58677        -0.788463     -0.095950     -1.358501
O       3.90611      2.03070     14.97686        -0.590536     -1.419461      0.187126
O       3.85021     13.68605      2.68572         1.518097     -0.614286     -0.278456
O       3.81167     14.14037     14.79565        -1.938913     -1.278568      0.028647
O      15.59631      1.91749      2.57491         0.345651     -0.315157     -0.510535
O       0.15151      2.23545     15.12133        -3.410032     -0.563099     -0.470506
O      15.58599     13.83996      2.61582        -0.284929     -1.267886     -0.362421
O      15.56187     13.77272     14.84242        -1.326699     -1.369375     -0.519619
O       3.81000      1.78408      6.40219         0.718142      0.027475      0.781357
O       3.76236     13.44689      6.65272         1.485571      0.756219      0.144290
O       0.03128      2.16672      6.06391        -0.463177     -0.820190      0.807798
O      15.58946     13.61420      6.56519        -2.663875     -0.436851      0.613019
O       3.72533      2.00170     10.63959        -0.355035     -0.607774     -0.282159
O       3.90229     13.42557     10.60331        -1.755170      1.114765     -0.624835
O      15.51103      1.89924     10.55532        -0.345404     -1.152074      0.745251
O      15.34012     13.82370     10.30564         0.071340     -0.975842      0.084333
O       4.09157      5.65612      2.64446        -1.444301      1.191186     -1.603560
O       3.86430      5.88340     15.00704         1.445931     -0.149217     -0.245898
O       0.17199      6.07828      2.60105         0.155576     -1.607689     -1.124955
O       0.13371      5.87446     15.25390        -1.807456      0.268338     -0.645958
O       3.97095      6.09805      6.75607         0.377754     -0.618610     -0.422568
O       0.05695      5.36697      6.52812        -1.124329      1.435315      0.751743
O       3.85405      5.98079     10.74135        -0.488269     -1.525884      0.301051
O       0.02910      5.88521     10.90000        -0.836584      0.026397     -0.349105
O       3.84486      9.88434      2.29301         0.551502     -0.060794     -0.443920
O       4.04513      9.94318     15.06445        -3.796654     -0.575846      0.514046
O      15.58081      9.72239      2.63595         1.959646      0.363403     -1.043612
O      15.57043      9.99046     14.67640         2.517496     -0.546935     -0.014725
O       3.99233      9.44776      6.58878        -2.643563      0.666495      0.498785
O      15.43157      9.77288      6.45605         1.399895      0.116157      0.824091
O       3.80413      9.69087     10.55692        -0.805853      0.257743      0.486470
O      15.44790      9.70847     11.11364         1.769986     -0.367399     -0.654319
O       7.93231      1.72716      2.19178         0.622212     -0.241869      0.032961
O       7.75968      1.68380     14.80972         0.566357      0.998904     -0.028412
O       7.88469     13.71929      2.30503        -0.497732     -1.126517     -0.332766
O       7.74747     13.58287     14.73137         1.366241      0.246279      1.151044
O       7.67722      2.13252      6.30017         1.298745     -0.498263      0.886129
O       7.69100     13.45424      6.51409        -1.450329      0.667486     -0.195130
O       7.75676      1.90127     10.63435         2.343028     -0.297343      0.124233
O       7.61085     13.71712     10.92505        -0.300380      0.146914     -0.833871
O       7.87312      5.77482      2.36463        -1.521925      0.806829     -1.390469
O       7.87339      5.65343     15.08245        -0.418009      1.808976     -1.434615
O       7.77551      5.80671      6.35711        -0.888216     -0.224127      0.542573
O       7.75620      5.83393     11.14321        -1.284708     -0.038296     -2.057807
O       7.75147      9.80259      2.72965        -0.216449     -0.621292     -1.830321
O       7.70892      9.56986     14.82667         2.547653      0.087519     -0.291103
O       7.84570      9.63973      6.44532        -0.853933      0.392683      0.437157
O       7.63082      9.38709     10.73900         0.351510      0.977126     -0.908933
O      11.64590      1.74235      2.25669         0.365687      0.895120     -0.809407
O      11.81180      1.70162     14.98695        -0.370443      1.855024     -0.697961
O      11.73993     13.19713      2.18930        -0.665560      1.848159     -0.331076
O      11.65357     13.39966     14.72329         1.309559      0.618566      0.116167
O      11.54271      1.70728      6.26936         0.797451      0.399967      0.589361
O      11.45563     13.47928      6.42315         1.841583      1.943614      0.486630
O      11.62255      1.88068     10.67627        -1.442084      0.432168     -0.348375
O      11.32776     13.50276     10.68192         2.844893     -0.158986      0.163353
O      11.66525      5.68148      2.29416         1.026430      1.418398      0.662394
O      11.85473      6.02514     15.20312         0.241275     -1.250941     -1.383724
O      11.70808      5.92479      6.36427         0.069046     -0.818798      0.831425
O      11.66185      5.57349     11.17977         0.002316      0.590728     -1.101792
O      11.31106      9.45523      2.21510         1.791223      0.427737      0.273908
O      11.71899      9.55086     14.84063        -0.743560      1.444934     -0.400983
O      11.64989      9.49316      6.67562         0.451592      0.120316     -0.251300
O      11.62519      9.77238     10.68495        -0.251803     -0.658915     -0.071033
O       2.17522      3.98433      2.37763        -1.218547     -0.499600     -0.118259
O       1.94066      3.99757     15.32586         0.614087     -1.326094     -0.242650
O       1.97429     15.57311      2.65425        -0.004891      1.213412      0.618293
O       1.56542      0.02618     14.67824         0.921892      1.697896      0.647087
O      13.73369      3.88357      2.15634        -0.033517     -0.695254      0.121609
O      13.62896      3.88732     15.02715         0.457887     -0.722312     -0.091915
O      13.45924     15.39225      2.38413         0.109668      0.498823     -0.693793
O      13.63236      0.01794     14.78040         0.714126     -0.281007      0.089774
O       2.09193      3.78129      6.71860         0.605542      0.510236     -0.252488
O       1.66842      0.02455      6.47561         0.448139      0.207833      0.456875
O      13.58907      3.67239      6.60634        -0.633581      1.561658     -0.271018
O      13.65112      0.05216      6.46331        -0.446593     -0.627858      0.171614
O       1.64646      3.82377     10.55499         1.082611      1.205423      1.183433
O       1.83612     15.56180     10.36948         0.709793     -0.399229      0.817314
O      13.73806      3.79380     10.88986        -0.319987      0.870336      0.068917
O      13.11495     15.42117     10.56863         1.799550      1.137201     -0.076382
O       2.19940      7.90508      2.60735        -0.743434      0.072429     -0.845171
O       2.13485      7.99031     14.91590        -0.573222      0.266178      0.141990
O      13.95504      7.91707      2.53435        -1.470836     -1.857283     -0.658319
O      13.61035      7.97995     14.82167         1.702899     -1.544689      0.677709
O       1.84708      7.83367      7.00149        -1.107273     -0.464197     -0.492213
O      13.79898      7.65600      6.43920         0.358996     -0.010028      1.461311
O       1.88246      7.70361     11.17819        -0.237997      0.552247     -1.578561
O      13.30933      7.63780     10.98289         1.715476      0.267832     -1.381976
O       1.85811     11.63606      2.58883         0.652805      0.654071     -0.718186
O       1.92030     11.86706     14.87605         0.418273     -0.152432      0.053306
O      13.51488     11.60197      2.60211         1.366825      0.598455     -1.438572
O      13.65114     11.64872     14.66406        -0.062950      1.463825     -0.119999
O       1.83826     11.54592      6.70113         0.597354     -1.246492      0.115698
O      13.29539     11.68716      6.71046         1.652568     -0.781624     -0.844491
O       1.74897     11.81855     10.91723        -0.513894     -0.716319     -0.526094
O      13.50729     11.64770     10.57836         0.717953     -0.243188      1.095039
O       6.19190      3.79097      2.37399        -1.486814      0.078857     -0.783161
O       5.79152      3.78287     14.91426         0.573985     -0.314462      0.512611
O       5.99378     15.47853      2.54687        -0.647060      0.468985     -0.668033
O       5.87669     15.55698     14.82977         0.350293      1.986171      0.860997
O       5.66312      3.99455      6.53809        -0.739810     -0.346937     -0.271316
O       6.03367      0.04755      6.48689        -0.902546     -2.006259     -0.087893
O       5.81823      3.60638     10.72060        -0.803879      5.654012      0.107689
O       5.68425      0.03449     10.75598        -1.258502     -1.092999     -0.930300
O       5.82663      7.90139      2.36019        -0.045573     -1.465202     -0.359048
O       5.86401      7.60088     14.72716        -0.432275      1.120001      0.416848
O       6.05717      7.86478      6.18863        -0.397780     -1.937461      0.989910
O       5.68819      7.70024     10.79442         0.041715     -0.549253      0.096853
O       5.95810     11.59804      2.41457        -0.536570      2.904077     -0.481447
O       5.94703     11.62336     14.63460        -0.260212      1.149319      0.308180
O       5.78597     11.62342      6.56520        -1.020292      0.105250     -0.406389
O       5.85886     11.60663     10.81372         0.408021      0.015974     -0.743064
O       9.77889      3.94597      1.97947         0.287413     -3.008373      0.205934
O       9.74801      3.84473     14.88131         0.971084     -1.618349      0.001897
O       9.85983     15.38418      2.28293         0.587475      3.269726      0.050875
O       9.79941     15.51321     14.52254         0.024147      0.279685      0.147049
O       9.56023      3.92497      6.79027         1.626703     -0.078326     -1.012379
O       9.50240     15.53171      6.61948         0.155131      1.221281     -0.473774
O       9.60606      3.85299     10.66430         0.685050     -0.893183     -0.158262
O       9.55647      0.00809     10.70825         0.934015      0.687690     -0.262709
O       9.42568      7.65115      2.36360         0.448544      2.457734     -0.050462
O       9.94070      7.69330     14.55652        -1.124556      1.750322      0.642457
O       9.58348      7.65123      6.38453         0.387810     -0.093203     -0.010932
O       9.75906      7.71765     10.90587         0.481223     -0.264393     -0.741867
O       9.76055     11.61546      2.34128        -1.916411     -0.780995     -1.653938
O       9.80605     11.62572     14.86491        -0.809615     -1.272005     -0.388658
O       9.62716     11.81104      6.42491         0.164551     -3.533150      1.042660
O       9.48456     11.56616     10.66763        -0.073579     -0.364038      0.460054
