  # total energy = -7885.50635275 
CRSYTAL
PRIMVEC
    15.464    0.0000000000000000    0.0000000000000000
     0.0000000000000000   15.464    0.0000000000000000
     0.0000000000000000    0.0000000000000000   17.350608
PRESSURE
-1.60697 -1.53291 1.0221 -0.085133 0.031469 0.010834
PRIMCOORD
320 1
Pb       3.88223      3.83982      4.33151        -0.169366     -0.001088     -0.423621
Pb       3.87987      3.82634     17.28915         0.068185      0.211234     -0.323743
Pb       3.84203      0.02143      4.29799        -0.191918     -0.318111     -0.152838
Pb       3.87764      0.00632     17.31307         0.098153     -0.172396     -0.457971
Pb       0.00872      3.84082      4.34074         0.047275     -0.067159     -0.571734
Pb      15.43811      3.82151     17.31783        -0.167147     -0.226474     -0.464643
Pb      15.41953     15.43843      4.26399         0.082389     -0.002824     -0.126713
Pb      15.44078     15.45254     17.32568        -0.613305     -0.022021     -0.252120
Pb       3.83759      3.86419      8.63699         0.285106      0.050247     -0.192313
Pb       3.85698     15.42887      8.62154        -0.174023      0.040460     -0.122599
Pb      15.44144      3.83252      8.62528        -0.318866     -0.070617     -0.292595
Pb      15.43721     15.44025      8.63888        -0.343526      0.004609     -0.478142
Pb       3.82071      3.82735     12.97494         0.254430      0.379547     -0.864259
Pb       3.85856     15.42259     12.99939        -0.159144     -0.373677     -0.694495
Pb       0.00284      3.87615     12.97588        -0.427946     -0.095616     -0.421360
Pb       0.00386      0.00477     12.97683        -0.348120      0.069113     -0.587216
Pb       3.82371      7.73299      4.29453         0.015607      0.302700     -0.461475
Pb       3.81011      7.70002     17.33798         0.358830      0.123731     -0.724192
Pb      15.42215      7.72006      4.29624        -0.097038     -0.069780     -0.175102
Pb      15.43590      7.70971     17.31483         0.033070      0.186032     -0.665691
Pb       3.87033      7.73703      8.65174         0.056893     -0.076537     -0.481360
Pb       0.01513      7.69295      8.68636        -0.048984      0.017196     -1.112603
Pb       3.84276      7.71223     12.97742         0.269987     -0.317197     -0.444960
Pb       0.00409      7.73800     12.96167        -0.093278     -0.070567     -0.128599
Pb       3.85927     11.59763      4.31893         0.033667     -0.186126     -0.725694
Pb       3.87705     11.57444     17.31819        -0.253371     -0.110940     -0.325234
Pb      15.41596     11.60164      4.30791         0.126203     -0.314077     -0.304815
Pb      15.44704     11.59508     17.31638         0.066266     -0.244261     -0.435946
Pb       3.85155     11.58766      8.66787        -0.239555     -0.024173     -0.309817
Pb      15.41601     11.57639      8.63417         0.013238     -0.058079     -0.797944
Pb       3.83953     11.54914     12.99310        -0.102903      0.589793     -0.391972
Pb      15.44492     11.60650     12.95074         0.060343     -0.245656     -0.514763
Pb       7.71305      3.83711      4.33444         0.038662     -0.319082     -0.290207
Pb       7.73138      3.83789     17.31672        -0.272348      0.112436     -0.256378
Pb       7.74089     15.43472      4.30255         0.036632      0.334253     -0.615692
Pb       7.69799     15.45976     17.34484         0.081574     -0.246410     -0.541007
Pb       7.73784      3.87296      8.61735        -0.489597      0.221765     -0.059737
Pb       7.72337     15.46326      8.64272        -0.124192      0.029472     -0.770542
Pb       7.72756      3.83887     12.98357        -0.198727      0.102348     -0.603477
Pb       7.75816     15.45812     13.00486         0.089719     -0.262858     -0.258497
Pb       7.71702      7.73223      4.31209        -0.011319      0.274324     -0.312643
Pb       7.73701      7.71495     17.33590        -0.179630      0.269247     -0.552397
Pb       7.73833      7.71086      8.65594        -0.327873     -0.416894     -0.333545
Pb       7.72359      7.70538     12.99657        -0.623014      0.117365     -0.539443
Pb       7.72081     11.60011      4.32233        -0.071358     -0.214995     -0.779977
Pb       7.70403     11.55867     17.31739         0.088363      0.100652     -0.132946
Pb       7.69426     11.60213      8.62006         0.250086      0.057583     -0.389906
Pb       7.72168     11.55497     12.98379         0.054644     -0.079522     -0.430212
Pb      11.54432      3.83616      4.35302        -0.088048      0.283467     -0.854761
Pb      11.55406      3.85874     17.32541         0.310518     -0.100919     -0.700314
Pb      11.58953     15.42650      4.32343         0.055482     -0.111373     -0.804784
Pb      11.56825     15.45469     17.34460         0.190007      0.241957     -0.609929
Pb      11.58554      3.86714      8.68042         0.399749      0.040197     -0.533371
Pb      11.54604     15.42613      8.61275         0.586003     -0.160313     -0.018674
Pb      11.58639      3.86004     12.99403         0.231360      0.002515     -0.173063
Pb      11.56018     15.42603     13.01407         0.253753      0.121359     -0.255313
Pb      11.57528      7.70820      4.29233         0.184210     -0.240084     -0.429109
Pb      11.57696      7.69234     17.30957        -0.232149      0.247691     -0.699217
Pb      11.57573      7.68878      8.68608         0.037998      0.019382     -1.029435
Pb      11.54666      7.69663     12.99523         0.181129     -0.053013     -0.260564
Pb      11.56037     11.59461      4.30811         0.094214     -0.070084     -0.322372
Pb      11.56316     11.61394     17.30152        -0.178961     -0.450668     -0.276235
Pb      11.53511     11.56849      8.64123        -0.030433      0.128984     -0.706603
Pb      11.58377     11.60276     12.93981        -0.170188     -0.236606     -0.354425
Ti       1.89710      1.91949      2.28001        -0.866277     -0.198871      1.561608
Ti       1.93838      1.83464     15.30405        -0.682870      0.782160      1.615580
Ti       1.90550     13.50282      2.28175        -0.055991     -0.082723      2.223174
Ti       1.86659     13.51579     15.31326         0.301887     -0.977326      0.166210
Ti      13.44996      1.93153      2.30816         0.954533     -0.776880      0.140355
Ti      13.52067      1.86102     15.32336        -0.549289      0.771175     -0.637396
Ti      13.49688     13.47946      2.28882         0.390575      0.503142      1.034711
Ti      13.45652     13.47597     15.30532         0.381187      0.701563      1.711101
Ti       1.89010      1.86097      6.69215        -0.002368      0.303460      0.217815
Ti       1.94201     13.47960      6.58410        -0.961050      0.310233      1.119609
Ti      13.45951      1.92645      6.56457         0.950252     -0.607564      2.121744
Ti      13.51297     13.46815      6.62933        -0.186872      0.831534      0.604316
Ti       1.92767      1.94011     10.99139        -0.000627     -0.977684      0.570220
Ti       1.90111     13.56524     10.90211         0.575703     -0.418234      0.834011
Ti      13.45594      1.92775     10.99833         0.320101     -0.115301      0.098689
Ti      13.48037     13.49620     10.98176        -0.010603      0.578364      0.286079
Ti       1.92341      5.77552      2.28686        -0.169824     -0.209546      0.621142
Ti       1.92025      5.69554     15.31507        -0.358997      0.798672     -0.758246
Ti      13.49949      5.69754      2.21470        -0.197677      0.763090      2.761125
Ti      13.56013      5.78274     15.32364        -0.845790     -0.288043      0.273370
Ti       1.94345      5.73084      6.60096        -0.513404      0.922502      2.423279
Ti      13.49774      5.72994      6.57518         0.003358      1.400435      0.755054
Ti       1.85072      5.79665     10.90988         1.050479      0.118011      2.558387
Ti      13.49817      5.85129     10.98442         0.067277     -1.011333      0.391895
Ti       1.90141      9.64045      2.29271        -0.078221      0.147448      0.364320
Ti       1.91238      9.57912     15.27795        -0.362099      0.738967      0.876954
Ti      13.49944      9.60436      2.27403         0.263579      0.272564      1.029485
Ti      13.49359      9.64950     15.31503        -0.131713     -0.321256      0.885470
Ti       1.90976      9.64451      6.64579        -0.417189     -0.408695     -0.481155
Ti      13.43887      9.64666      6.62160         0.780028     -0.633827      1.806785
Ti       1.92838      9.66788     10.97264        -0.010322     -0.148291      0.513139
Ti      13.47108      9.59840     10.90459        -0.107387      0.742653      0.981642
Ti       5.70877      1.94766      2.29029         1.375640     -0.126575      0.671178
Ti       5.81105      1.91823     15.25658         0.104372      0.289209      1.363842
Ti       5.77969     13.53428      2.29679         0.114896     -0.551136      0.940883
Ti       5.74763     13.51605     15.29703         0.563545      0.140216      1.603966
Ti       5.79197      1.93260      6.64165        -0.417355     -0.355841      0.916863
Ti       5.74699     13.48031      6.64125         0.035097      0.919439     -0.511521
Ti       5.82301      1.87915     10.92898        -0.576569      0.935401      1.209216
Ti       5.82830     13.56906     10.94198        -1.627180     -0.917218      0.563422
Ti       5.82707      5.77565      2.31765        -0.639987     -0.108362     -0.245940
Ti       5.78488      5.77012     15.27747        -0.187246      0.790885      0.081265
Ti       5.81683      5.76139      6.60968        -0.012882      0.669202      2.532042
Ti       5.79773      5.78351     10.95747        -0.490228     -0.363338     -1.258776
Ti       5.84048      9.62119      2.28964        -0.338481      0.473783     -0.698597
Ti       5.72069      9.71544     15.26858         0.599066     -1.175485      0.008462
Ti       5.85117      9.67971      6.67965        -1.249201     -1.150852     -1.011548
Ti       5.71535      9.70781     10.92766         0.719030     -0.999006      0.738881
Ti       9.60939      1.92471      2.21391        -0.002190     -0.314331      2.290776
Ti       9.63567      1.94627     15.31640         0.864187     -0.656754      1.184259
Ti       9.64706     13.53515      2.27188         0.182979     -0.379990      1.853613
Ti       9.63507     13.50936     15.35456        -0.263445      0.475581     -0.015045
Ti       9.66240      1.89979      6.59888        -1.005009      0.210301      0.062097
Ti       9.58865     13.56083      6.57889         0.838916     -1.128751      1.507140
Ti       9.64634      1.88365     10.93901         0.466299      0.078608      2.300772
Ti       9.62580     13.51159     10.92549         0.562497     -0.346799      1.150437
Ti       9.59884      5.76151      2.31744         0.904424      0.133229      2.362630
Ti       9.59988      5.76272     15.30360         1.358167      0.066925      0.542718
Ti       9.62316      5.71234      6.60179         0.591699      0.815975      2.022926
Ti       9.58642      5.74473     10.96363         0.664009     -0.088773      0.617201
Ti       9.72111      9.64699      2.26915        -0.756858     -0.272403     -0.181435
Ti       9.59248      9.65507     15.25856         1.028237     -0.026660      0.784643
Ti       9.59817      9.61327      6.60880         1.272091      0.400763      0.921244
Ti       9.60319      9.57363     10.93117         0.460998      0.489978      1.735016
O       1.86677      1.89773      0.55004         0.317795     -0.019065     -0.942340
O       1.88976      1.88123     13.60802         0.073460      0.279731     -2.032732
O       1.91038     13.48845      0.58038         0.056484      0.192632     -1.745280
O       2.01314     13.50708     13.58521        -0.448629     -0.021435     -0.755109
O      13.58000      1.88336      0.56530        -0.143225      0.114404     -0.553419
O      13.41029      1.91682     13.52553         0.489106     -0.123924      0.203188
O      13.60208     13.53943      0.56827        -0.277713     -0.235510     -0.887094
O      13.36725     13.53730     13.60520         0.395836     -0.374696     -1.821811
O       1.88387      1.90828      4.96166         0.276063      0.154703     -1.084222
O       1.98149     13.55254      4.84989         0.110296     -0.187943     -0.626679
O      13.57270      1.92963      4.85563        -0.500344     -0.089312     -1.329445
O      13.51303     13.61890      4.88498        -0.209526     -0.348765     -0.620662
O       1.94617      1.84746      9.28043        -0.046403      0.196401     -1.546673
O       1.92488     13.56536      9.14067        -0.032081     -0.178644      0.263262
O      13.43076      1.94720      9.23580         0.020464      0.051171     -0.287198
O      13.47475     13.59097      9.25273         0.090622     -0.345281     -0.923171
O       1.83126      5.76099      0.53302         0.396091      0.138369     -0.476181
O       1.88752      5.69015     13.50980        -0.007996     -0.205609      0.441400
O      13.51287      5.71569      0.51552         0.138083      0.309476     -1.896004
O      13.53129      5.83096     13.59069         0.120620     -0.177259     -1.206018
O       1.88755      5.78141      4.90376         0.271465     -0.113983     -1.518090
O      13.55749      5.79056      4.85290        -0.232688     -0.381687     -1.110518
O       1.91392      5.79489      9.23332        -0.230179     -0.212868     -2.487130
O      13.59229      5.72651      9.24926        -0.518225      0.305839     -1.191233
O       1.86391      9.71772      0.51788         0.362069     -0.499332     -0.083677
O       2.10746      9.68883     13.55079        -0.828945     -0.199664     -0.915543
O      13.54801      9.64612      0.54567        -0.222359     -0.219735     -0.924185
O      13.51043      9.66426     13.60200        -0.002903      0.141136     -1.401235
O       1.84989      9.62240      4.85297         0.259136     -0.117238      0.386868
O      13.53008      9.74436      4.92847        -0.193661     -0.192976     -2.077614
O       1.98791      9.64848      9.23664        -0.195399      0.238124     -0.737886
O      13.40871      9.62577      9.16970         0.387021     -0.043737     -0.782732
O       5.75467      2.02908      0.54605        -0.301918     -0.177114     -0.705857
O       5.88652      1.86462     13.55475        -0.062848      0.135985     -1.539552
O       5.89860     13.56297      0.56721        -0.562523     -0.105971     -0.966135
O       5.83862     13.44402     13.60306         0.113639      0.310409     -1.481185
O       5.78200      1.95170      4.91615        -0.155962     -0.084395     -1.223827
O       5.68483     13.46892      4.85092         0.343238      0.032916      0.348387
O       5.80972      1.97382      9.20816         0.077621     -0.462903     -1.160753
O       5.67030     13.52495      9.18832         0.529833     -0.122538     -0.519305
O       5.82209      5.65755      0.55147        -0.104414      0.278428     -0.313616
O       5.78716      5.78680     13.52111         0.161315     -0.150042     -0.199499
O       5.89996      5.72750      4.90882        -0.549512      0.221434     -1.692919
O       5.96471      5.69345      9.12253        -0.441166      0.273245      1.120367
O       5.75283      9.70050      0.47603         0.088882     -0.224799      0.509428
O       5.77649      9.60086     13.49584         0.028979      0.293755      0.249957
O       5.94166      9.60524      4.87023        -0.284204      0.193639      0.542293
O       5.73493      9.63053      9.16153         0.149753      0.327704     -0.267546
O       9.71708      1.86857      0.51093        -0.269601      0.249837     -1.531465
O       9.75045      1.91991     13.59963        -0.486166     -0.104989     -1.433169
O       9.69429     13.53063      0.57599        -0.110767      0.015264     -1.812768
O       9.57969     13.54684     13.59260        -0.016015     -0.179267     -0.380912
O       9.57050      1.87341      4.85798         0.268308     -0.110083     -0.448949
O       9.55583     13.60299      4.86261         0.238521     -0.096138     -1.524814
O       9.61498      1.81702      9.24733         0.045516      0.207532     -1.975834
O       9.70821     13.67141      9.20082        -0.486862     -0.629255     -0.742096
O       9.66628      5.72035      0.65003        -0.261038     -0.032976     -2.960353
O       9.70314      5.79583     13.56893        -0.486258      0.030349     -0.827580
O       9.61763      5.64253      4.91258         0.138758      0.367450     -2.383528
O       9.61147      5.76423      9.21168         0.134296     -0.349962     -0.569872
O       9.74746      9.62628      0.50002        -0.235745      0.030101     -0.070053
O       9.67498      9.66604     13.48711        -0.272550     -0.193983      0.103179
O       9.55871      9.61811      4.86689         0.067553      0.010573     -0.482420
O       9.64859      9.66824      9.22222        -0.183676     -0.000782     -1.130280
O       3.83644      1.88090      2.74252        -0.141156      0.399662     -0.133241
O       3.84631      1.90437     15.68552         0.114265     -0.117613      0.232131
O       3.85126     13.54022      2.70986        -0.197499     -0.264621     -0.199246
O       3.86717     13.46264     15.70679        -0.113756      0.809425      0.463221
O      15.40903      1.89987      2.72504         0.649160      0.362666      0.063492
O      15.42003      1.95138     15.68543         0.934648     -0.324817      0.273916
O       0.02080     13.53552      2.72592        -0.339944     -0.320172      0.000979
O      15.38050     13.51615     15.68019         0.467986      0.033934      0.041028
O       3.86522      1.82727      7.00581        -0.086902      0.736050      0.402452
O       3.80591     13.43746      7.08396         0.385592      0.012861     -0.257454
O      15.44962      1.91323      6.97516        -0.863198      0.356220      0.605734
O      15.44516     13.54354      6.94067        -0.058404     -0.165207      0.543791
O       3.92591      1.85798     11.36347        -0.512760      0.291924      0.396788
O       3.93155     13.47901     11.48642        -0.779125      0.238139     -0.341487
O      15.43778      1.90374     11.31497         0.177948     -0.043265      0.568042
O      15.44471     13.49401     11.34105         0.377278     -0.070325      0.314354
O       3.88387      5.82419      2.66703        -0.393684     -0.451921      0.374343
O       3.82380      5.85685     15.60397         0.334560     -0.330834      0.657047
O       0.01548      5.76327      2.72546        -0.701311      0.067389     -0.198540
O      15.43446      5.86168     15.64162         0.615254     -0.548713      0.540543
O       3.84328      5.73263      7.03194         0.296995      0.042158     -0.172989
O      15.41315      5.88936      6.97126         0.576189     -0.569283      0.476841
O       3.85005      5.81212     11.28303        -0.072974     -0.621161      0.289930
O      15.39976      5.83121     11.29848         0.838207     -0.605865      0.661834
O       3.88324      9.68327      2.67151        -0.588213     -0.532049      0.302343
O       3.83652      9.60239     15.60139         0.006712      0.380435      0.830693
O      15.42560      9.61501      2.64451        -0.011497     -0.430782      0.290741
O      15.43449      9.61190     15.66036         0.299755      0.340279      0.182953
O       3.87676      9.60426      6.94907        -0.002572      0.740735      0.283012
O      15.43550      9.68467      7.01524        -0.035286     -0.417201      0.636728
O       3.87109      9.51114     11.39205        -0.293597      0.547965     -0.167340
O       0.04227      9.61528     11.41328        -0.314507      0.556880     -0.107837
O       7.67876      1.95987      2.64385         0.123935     -0.426445      0.019510
O       7.73170      2.01155     15.70216        -0.414359     -0.281505      0.097572
O       7.78489     13.45406      2.65760        -1.091117      0.183648      0.402846
O       7.72917     13.45324     15.80952        -0.274784      0.560763     -0.094154
O       7.66383      1.85855      6.94623         0.698954     -0.334226      0.709015
O       7.69458     13.45529      6.99896        -0.063642      0.366024      0.320341
O       7.74665      1.94564     11.32226         0.052262     -0.711047      0.494784
O       7.65721     13.45265     11.38047         1.233697      0.303370     -0.146032
O       7.68907      5.82201      2.72533         0.389236     -0.481431      0.069621
O       7.72838      5.75957     15.73355        -0.595677     -0.200582      0.075193
O       7.74937      5.78384      6.92841        -0.327952      0.347850      0.628989
O       7.70490      5.73690     11.36787         0.539666      0.107074      0.376059
O       7.73856      9.55914      2.63221        -0.260273      0.532831      0.135436
O       7.74804      9.72712     15.67127        -0.536657     -0.205499      0.020803
O       7.70700      9.57585      7.05669         0.657300      0.613270      0.348030
O       7.68556      9.61164     11.43031         0.389525     -0.040812     -0.416901
O      11.57877      1.94494      2.66651        -0.334572     -0.473087      0.349492
O      11.66449      1.88058     15.74289        -1.113565      0.424359      0.419627
O      11.59292     13.54441      2.70177        -0.011144     -0.248897      0.302823
O      11.54276     13.55257     15.72448         0.191059     -0.201958      0.322661
O      11.51146      1.94315      6.97307         0.679180     -0.140201      0.027285
O      11.57065     13.36871      6.99369        -0.214242      1.235357      0.049888
O      11.54903      1.85610     11.33954        -0.245942      0.229597      0.132893
O      11.60002     13.53539     11.36350        -0.623380     -0.599659      0.202951
O      11.57623      5.69336      2.65177        -0.179222      0.262481      0.460932
O      11.51276      5.75416     15.65325         0.648048      0.179507      0.721404
O      11.55243      5.71374      6.90988         0.060678     -0.065896      0.754120
O      11.67385      5.81234     11.40320        -1.442553      0.173353      0.017651
O      11.56242      9.64047      2.67872         0.465220     -0.015226      0.494673
O      11.53022      9.61014     15.66558         0.170897      0.087235      0.275516
O      11.57281      9.68816      6.98770        -0.731673      0.143151      0.313740
O      11.56094      9.52132     11.28519        -0.044404      0.386882      0.284979
O       1.89782      3.84325      2.72486         0.389644     -0.174073      0.089230
O       1.95351      3.83909     15.72788        -0.225432     -0.169688      0.032324
O       1.91802      0.00760      2.70331         0.115642     -0.118829     -0.122815
O       1.84254     15.41444     15.60296         0.444035      0.585493      0.829858
O      13.45302      3.84079      2.60041         0.489790      0.000018      0.449615
O      13.56824      3.85594     15.66101        -0.152402      0.087385      0.467944
O      13.57022     15.39457      2.63134        -0.493894      0.552187      0.544506
O      13.45186     15.45180     15.71574         0.584993     -0.543176      0.229722
O       1.87308      3.85563      7.11171         0.223766      0.020215     -0.123209
O       1.85268      0.00181      7.06727         0.516482     -0.834307     -0.014522
O      13.44835      3.85130      6.98497         0.348615     -0.682973      0.319789
O      13.52375      0.01948      7.10755        -0.533090      0.013842     -0.405064
O       1.97908      3.77967     11.28085        -0.284804      1.110696      0.610848
O       1.96128     15.41420     11.39110        -0.129638      0.147777      0.312165
O      13.41139      3.85536     11.29962         0.556796     -0.189506      0.587048
O      13.49164     15.41188     11.41361         0.276204      0.218755      0.173783
O       1.92044      7.66727      2.71098         0.148721      0.541740     -0.017830
O       1.86642      7.68618     15.64852         0.279637      0.331208      0.442041
O      13.36673      7.70385      2.74398         0.735296     -0.262242     -0.292532
O      13.52243      7.72581     15.62679        -0.295798     -0.159872      0.858839
O       1.98232      7.74674      7.10510        -0.399498     -0.553923     -0.079136
O      13.40647      7.70732      6.90377         0.072942     -0.062218      0.632024
O       1.87930      7.68897     11.24147         0.043134      0.237099      0.595706
O      13.56452      7.77661     11.36894         0.054767     -0.612482      0.193918
O       1.82914     11.51237      2.67389         0.501815      0.850060      0.213527
O       1.89472     11.63856     15.65659        -0.018529     -1.008793      0.486935
O      13.53507     11.51652      2.69593        -0.252039      0.832488      0.216131
O      13.47883     11.58868     15.74989        -0.069888     -0.135104     -0.027845
O       1.79588     11.57752      6.99574         0.687554      0.077762      0.257621
O      13.49068     11.61328      6.98691         0.393423     -0.322334      0.608045
O       2.01560     11.63001     11.28751        -0.289839     -0.517359      0.311568
O      13.52056     11.51231     11.33063        -0.046161      0.425249      0.384912
O       5.79335      3.83613      2.73721        -0.401168      0.133901      0.238370
O       5.75879      3.87902     15.59642        -0.199308     -0.308548      0.445022
O       5.79849     15.43772      2.57911        -0.040608      0.370416      0.511730
O       5.83084      0.04467     15.64800        -0.095824     -0.693487      0.537643
O       5.87069      3.88248      7.02857        -0.490079     -0.748037     -0.013670
O       5.71460     15.36595      7.04273         0.430087      0.434098      0.038445
O       5.85223      3.82917     11.28964        -0.347112     -0.290489      0.725640
O       5.69152     15.38380     11.39853         1.156675      1.109704     -0.096425
O       5.76792      7.69394      2.62788         0.033434      0.159641      0.325221
O       5.77760      7.75952     15.63510         0.342704     -0.405565      0.528647
O       5.80554      7.74310      7.14381        -0.005690     -0.533432     -0.481217
O       5.77734      7.63632     11.36671         0.426999      0.696016      0.035977
O       5.72998     11.56529      2.64814         0.493217      0.141887      0.364946
O       5.77222     11.61534     15.64496        -0.045912     -0.559125      0.419655
O       5.85384     11.60028      7.01337        -0.257017     -0.630396      0.422163
O       5.73961     11.54404     11.26366         0.204634      0.067536      0.215471
O       9.64298      3.78168      2.68998        -0.185683      0.603920      0.153145
O       9.69965      3.80260     15.71165        -0.274608      0.831202      0.336324
O       9.63635     15.44250      2.65922        -0.029746      0.294068      0.290492
O       9.65313      0.03349     15.71306        -0.359571     -0.567693      0.293338
O       9.57224      3.81678      6.92706         0.133039     -0.401863      0.614915
O       9.61713     15.41441      6.99188         0.052629      0.622840      0.273268
O       9.67410      3.87382     11.42006         0.076371     -0.782390     -0.202934
O       9.73728     15.37157     11.32478        -1.039016      0.851036      0.470619
O       9.60563      7.71078      2.62649         0.454386     -0.466947      0.504478
O       9.59141      7.66967     15.77709        -0.012625      0.609994     -0.205392
O       9.72837      7.74823      7.08770        -0.394107     -0.362697     -0.175765
O       9.67849      7.60212     11.25923        -0.379035      1.398687      0.574867
O       9.69311     11.53531      2.67997        -0.166698      0.539199      0.281091
O       9.67572     11.61910     15.77093         0.042570     -0.671523     -0.274077
O       9.69088     11.61833      6.97999        -0.879085     -0.747914      0.347131
O       9.69591     11.58170     11.35888        -0.295384     -0.201491     -0.134017
