  # total energy = -7881.35731345 
CRSYTAL
PRIMVEC
    15.464    0.0000000000000000    0.0000000000000000
     0.0000000000000000   15.464    0.0000000000000000
     0.0000000000000000    0.0000000000000000   17.350608
PRESSURE
-0.403258 -0.384162 -2.39167 0.099632 0.041369 0.033929
PRIMCOORD
320 1
Pb       3.84137      3.90726      4.34429        -0.056376     -0.518573     -0.473961
Pb       3.87007      3.98309     17.31067        -0.260691     -0.610426      0.099089
Pb       3.72606     15.36157      4.29903         0.700182      0.379461     -0.187064
Pb       3.82049     15.39229     17.15463         0.624423      0.205112      0.528177
Pb       0.18388      3.84340      4.36050        -0.724164      0.102496      0.359442
Pb      15.39598      3.73400      0.01532         0.516717      0.112890      0.107520
Pb       0.14833      0.00751      4.29188        -0.573337     -0.603236      0.093612
Pb      15.44978     15.32735     17.23148        -0.055923      0.631146      0.356636
Pb       3.72457      3.90956      8.54270         0.410947     -0.058900      0.560012
Pb       3.75314     15.35855      8.82294         0.753910      0.186284     -0.782258
Pb      15.42054      3.74099      8.52997         0.226027      1.223800      0.726213
Pb       0.02737      0.00129      8.59230        -0.115569     -0.340918      0.172379
Pb       3.65855      3.86169     12.93707         0.403042      0.038754      0.345767
Pb       3.75494     15.29047     12.97639         0.493239      0.710632      0.587627
Pb      15.38346      3.85012     12.95723         0.730736      0.283565      0.339025
Pb      15.42455      0.07197     12.97022         0.346034     -0.181777      0.011206
Pb       3.77507      7.72227      4.25317         0.029301     -0.011684     -0.131839
Pb       3.66109      7.57266      0.16359         0.398353      0.512922     -0.599274
Pb      15.41483      7.72634      4.23386         0.168634     -0.116285      0.163960
Pb      15.44985      7.70843      0.11416        -0.280019      0.209179     -0.364480
Pb       3.90252      7.77481      8.60937         0.280305     -0.385554      0.215474
Pb       0.15758      7.74208      8.48517        -0.773547     -0.499469      0.720145
Pb       3.85197      7.65691     13.04794        -0.475706     -0.020478      0.305033
Pb      15.45556      7.84157     13.01259         0.418709     -0.554653      0.257076
Pb       3.85327     11.62189      4.33148         0.388103     -0.695376     -0.048381
Pb       3.81540     11.65086     17.29185         0.177314     -0.042219      0.178938
Pb       0.06908     11.55021      4.29926        -0.721232     -0.009521     -0.136013
Pb       0.11691     11.61753     17.28149        -0.829010     -0.672530      0.380854
Pb       3.90596     11.62906      8.55825         0.417693     -0.744958      0.727235
Pb      15.41844     11.55618      8.58436        -0.119371      0.183005      0.100983
Pb       3.75774     11.59726     13.01005         0.719147      0.041910      0.500462
Pb      15.41437     11.67551     12.85921         0.239766     -0.129155      0.307915
Pb       7.59790      3.81798      4.31352         0.265896     -0.458810      0.092774
Pb       7.68785      3.96969     17.25606         0.445613     -0.646765      0.259965
Pb       7.82234     15.35373      4.33562        -0.053745      0.567095     -0.420678
Pb       7.62505     15.33606     17.21255         0.069721      0.671917      0.410689
Pb       7.60870      3.88107      8.68888         0.273041     -0.062146      0.204570
Pb       7.65821      0.12544      8.66160         0.065245     -0.628028      0.693667
Pb       7.57565      3.83276     12.90767         0.661880      0.290993      0.418920
Pb       7.76463      0.08325     12.93874        -0.141717     -0.631266      0.725258
Pb       7.69416      7.73234      4.25788         0.275856     -0.003303      0.448247
Pb       7.76612      7.72307      0.00329        -0.059354      0.262789     -0.280234
Pb       7.69346      7.68527      8.62277        -0.046460     -0.086028      0.194353
Pb       7.61343      7.76670     13.02046         0.368515     -0.305566      0.189358
Pb       7.80491     11.56861      4.31179        -0.061075     -0.161937      0.346996
Pb       7.75298     11.53927     17.24919        -0.096829     -0.146347     -0.197094
Pb       7.69334     11.58344      8.65353        -0.288316     -0.083602      0.376941
Pb       7.68751     11.57274     12.94691         0.060982     -0.488528      0.679556
Pb      11.44597      3.87797      4.36618         0.225677     -0.378932     -0.158732
Pb      11.54999      3.86329      0.06233        -0.138080      0.046512     -0.145012
Pb      11.65948     15.44811      4.21691        -0.390173     -0.464530      0.484732
Pb      11.51457      0.01877     17.33593         0.181555     -0.372362     -0.570251
Pb      11.79911      3.89927      8.60580        -0.983079      0.178544      0.490849
Pb      11.60706     15.42843      8.70646        -0.200290     -0.025897     -0.049845
Pb      11.58296      3.81704     13.02233        -0.453580      0.248540     -0.286705
Pb      11.62244     15.44303     12.96544        -0.253714     -0.139343     -0.142561
Pb      11.72405      7.69823      4.30884        -0.432257     -0.296175     -0.562517
Pb      11.72995      7.75615     17.24016        -0.617524     -0.183222      0.837026
Pb      11.60583      7.76377      8.66472        -0.174858     -0.754266     -0.454599
Pb      11.58279      7.75161     13.09023        -0.403636     -0.465167      0.151647
Pb      11.66980     11.39867      4.33674        -0.188123      0.953732     -0.008109
Pb      11.51210     11.52065     17.20133         0.643806      0.711526      0.293105
Pb      11.56425     11.53159      8.54272         0.060740      0.535482      0.218631
Pb      11.63283     11.55963     12.89502        -0.330062      0.404842      0.388911
Ti       1.82129      1.87768      2.23400         2.110092      0.545345     -1.336379
Ti       1.99297      1.90375     15.34932        -0.805265      0.248558      0.459285
Ti       1.88848     13.45061      2.32850         0.813284      0.083190     -1.943889
Ti       1.87847     13.44418     15.27961         0.721084      1.397385     -0.245464
Ti      13.51219      1.89613      2.47396        -0.379513      0.833769     -1.640688
Ti      13.58109      1.89786     15.40159        -0.417201     -0.889591     -0.384208
Ti      13.54900     13.53899      2.28692        -0.562596     -0.948307     -0.155738
Ti      13.56430     13.46620     15.24294        -1.662611      0.044422      0.040756
Ti       1.89833      1.90852      6.66045         1.181824     -0.081875     -1.116481
Ti       1.94000     13.44211      6.73625         0.196632      0.396702      0.397713
Ti      13.45067      1.87573      6.62864         0.164466      0.338684     -0.559090
Ti      13.53933     13.55339      6.69656         0.296550     -0.403452     -1.258936
Ti       2.06716      1.93166     10.97300        -0.795124     -0.346751     -0.617975
Ti       2.03939     13.50954     10.89694        -1.592644      0.677557      0.751348
Ti      13.59975      1.98641     11.02417        -0.471958     -0.264371     -0.682766
Ti      13.57589     13.55295     10.96798        -0.185109      0.538729     -1.105833
Ti       1.83102      5.72106      2.29940         0.629960      0.534547      0.391643
Ti       1.83041      5.79313     15.40231        -0.400932     -0.352973     -1.038063
Ti      13.58031      5.67960      2.31105        -0.999341      0.176600     -0.365315
Ti      13.55196      5.68847     15.41216        -0.109242      1.933112     -0.359509
Ti       1.95219      5.80462      6.54038        -0.636453      0.143086     -0.467639
Ti      13.53039      5.77058      6.57886         0.552071      0.860091     -0.596466
Ti       1.85155      5.82653     10.95141         0.674681      0.334747      0.323487
Ti      13.49582      5.87219     11.03505         0.804267     -0.332587     -1.513878
Ti       1.86845      9.62929      2.29883         0.546610     -0.347252     -1.085658
Ti       1.85489      9.63151     15.37463        -0.148604     -0.874713     -0.354358
Ti      13.48082      9.67754      2.25661         0.944602      0.069600     -1.303685
Ti      13.56196      9.65528     15.29031        -0.041523     -0.038119      1.503282
Ti       1.89703      9.63388      6.59096         0.301679      1.152393     -0.568857
Ti      13.46224      9.57669      6.66224         0.669597      0.945188     -0.711185
Ti       1.99994      9.69587     11.05439        -0.971692     -1.031176     -0.527263
Ti      13.48726      9.66232     10.98632         0.367347      0.022714     -0.105906
Ti       5.75736      1.87697      2.34554        -0.296948     -0.940488     -1.997149
Ti       5.82128      2.00039     15.33473         0.025350     -0.916810     -0.798133
Ti       5.78600     13.46376      2.36887         0.012575      0.664620     -1.804642
Ti       5.80746     13.42497     15.30074        -0.139803      1.292745     -0.171968
Ti       5.73370      1.81069      6.76562        -0.379476      0.981197     -0.041397
Ti       5.87484     13.45974      6.72786        -0.581864     -0.122257      0.332220
Ti       5.81994      1.89023     11.04458        -0.557142     -0.082079     -0.096427
Ti       5.83041     13.50524     11.11008        -0.165471     -0.149160     -2.394802
Ti       5.79280      5.78842      2.34928        -1.239207     -0.027943      0.137827
Ti       5.74195      5.83371     15.26507         0.003885      0.380455     -0.121402
Ti       5.76211      5.67772      6.62164        -0.173372     -0.334260     -1.163625
Ti       5.74023      5.77728     11.05284         0.342377     -0.093853     -0.925572
Ti       5.83698      9.65572      2.33528        -0.916922     -0.508197     -0.125140
Ti       5.61290      9.62976     15.39959         1.271652     -0.915523     -0.914412
Ti       5.77552      9.53368      6.56901         0.408688      1.209411     -0.944121
Ti       5.66772      9.60384     11.06306         1.407051      0.209883     -0.741837
Ti       9.63515      1.94022      2.27450        -0.736013     -0.551547      0.907494
Ti       9.65689      1.96278     15.31746         0.019081     -0.367431      0.141167
Ti       9.70497     13.47348      2.38497         0.792564      0.397940     -0.479025
Ti       9.65117     13.47498     15.22290         0.917477      0.576833      0.361590
Ti       9.62509      1.91391      6.83423        -0.365853      0.137732     -1.178479
Ti       9.67254     13.52661      6.72290        -0.490636     -0.391711     -0.813722
Ti       9.70399      1.87902     11.02535        -0.519291      0.622079     -0.921502
Ti       9.61443     13.37041     10.97784         0.314179      0.508365      0.296205
Ti       9.65438      5.78990      2.41072         0.346861     -0.000814     -1.841519
Ti       9.63330      5.82015     15.39493         0.633342      0.319973     -1.401580
Ti       9.61501      5.70086      6.69187         0.169329      0.442364      0.414338
Ti       9.72711      5.77869     10.91086        -1.518156     -0.193647     -0.574638
Ti       9.68683      9.67556      2.29069         0.198533     -0.899667      0.006736
Ti       9.62294      9.63596     15.30104        -0.353753     -0.473321      0.521904
Ti       9.58214      9.60885      6.70623        -0.277370      0.434254     -1.643844
Ti       9.62365      9.54286     11.00979        -0.744870      0.577422      1.710653
O       1.83429      1.98301      0.42209         0.122496     -0.552283      1.312694
O       1.77686      1.88570     13.61848         0.461037      0.210865     -1.119949
O       1.96862     13.47122      0.51391        -0.189627     -0.335129      0.379250
O       1.94265     13.58949     13.53028        -0.150256     -0.449612     -0.408195
O      13.41447      2.03775      0.66457         0.232853     -0.069290      0.498752
O      13.56727      1.81486     13.60415        -0.309710      0.395387      0.140662
O      13.44861     13.38182      0.53385         0.417775      0.250909      0.206147
O      13.66023     13.64374     13.46267        -0.465669     -0.050203     -0.049931
O       1.95158      2.06742      4.83205        -0.379650     -0.844845      1.052531
O       1.99227     13.45950      4.98961        -0.281029     -0.098405     -1.863030
O      13.49385      1.94294      4.86387         0.196178     -0.758052      0.590407
O      13.64246     13.63682      4.90526         0.010846     -0.033257      0.987171
O       2.13816      1.97904      9.15294        -0.866822     -0.504973      0.647411
O       1.91110     13.55753      9.14508         0.320930      0.160178     -0.431024
O      13.58258      2.17609      9.23657        -0.074168     -0.662001      0.132101
O      13.51227     13.41662      9.16042        -0.067705      0.631583      0.577902
O       1.76250      5.72286      0.51399         0.856267      0.186661     -0.014397
O       1.76898      5.73340     13.60365         0.396752      0.009700      0.844353
O      13.50395      5.59934      0.51338         0.241544     -0.112025      0.674143
O      13.43532      5.98363     13.62412         0.212406     -0.923273      0.618375
O       1.92155      5.77391      4.74171        -0.303204      0.032864      0.817596
O      13.65798      5.91958      4.77188        -0.802324     -0.150641      1.216710
O       1.92454      5.78043      9.18771        -0.108229      0.671612     -0.268010
O      13.58888      5.85229      9.20962        -0.461602     -0.186162      1.216959
O       1.81556      9.64939      0.47836         0.393983      0.339473      0.870970
O       1.73213      9.52753     13.61012         0.769484      0.658882     -0.001374
O      13.63171      9.82820      0.48848        -0.406972     -0.056813      0.705745
O      13.48161      9.53272     13.55953         0.302371      0.120336     -1.331804
O       1.84332      9.70495      4.83833        -0.046971      0.103870     -0.316560
O      13.45800      9.59413      4.85479         0.032401     -0.249495      0.516060
O       2.07057      9.62447      9.27195        -0.301814     -0.093124      0.155070
O      13.50346      9.79662      9.20993        -0.064072     -0.554461      0.508786
O       5.81911      1.64886      0.53285        -0.157696      0.740808      1.407028
O       5.75813      2.07255     13.55428         0.546037     -0.210453      0.602245
O       5.78776     13.54740      0.52692        -0.025876     -0.237613      0.931694
O       5.65046     13.54604     13.55944         0.475245     -0.191058     -0.437500
O       5.78585      1.87336      5.03653         0.069321     -0.182999     -1.210640
O       5.86733     13.42196      4.94404        -0.182030      0.076783      0.024627
O       5.73505      1.98898      9.27504         0.125912     -0.400891     -0.086188
O       5.76401     13.46645      9.23008         0.013765      0.067408      1.693129
O       5.51435      5.93829      0.58804         0.709354     -0.602101      0.434953
O       5.80583      5.82513     13.46843        -0.412728     -0.354887      0.618431
O       5.71421      5.54139      4.79689         0.153748      0.510624      0.937379
O       5.70652      5.83298      9.23984        -0.126437     -0.129841      0.475704
O       5.79786      9.53136      0.54905         0.012072      0.319941      0.416358
O       5.68237      9.45775     13.61865         0.056183      0.490279      0.319425
O       5.91952      9.72536      4.76264        -0.117195     -0.473485      1.208741
O       5.67423      9.58857      9.24673        -0.135038     -0.177751      1.104261
O       9.60551      1.92003      0.54022         0.437174      0.127017     -0.194249
O       9.67291      2.00275     13.54443         0.224918      0.179526     -0.375733
O       9.95224     13.43726      0.64570        -0.792746     -0.070844      0.028262
O       9.60513     13.33610     13.50434         0.279545      0.446966     -0.721655
O       9.53711      1.89314      5.05030         0.058116      0.089114      0.507506
O       9.64201     13.40882      4.92584        -0.155406      0.761024      0.330571
O       9.53300      1.89291      9.23572         0.366180     -0.097840      0.709776
O       9.52213     13.22334      9.21276         0.685811      0.902558      0.613791
O       9.62803      5.78506      0.55927        -0.255397     -0.093264      1.547248
O       9.79327      6.03626     13.58193        -0.335601     -0.921974      1.371264
O       9.64445      5.71495      4.91766         0.071989     -0.126620     -0.082319
O       9.58735      5.82036      9.08951         0.343484      0.254825      1.228018
O       9.65013      9.63997      0.51971        -0.140159      0.299992      0.213414
O       9.64122      9.41793     13.56777         0.127275      0.539470     -0.355469
O       9.67552      9.66506      4.91291        -0.162154     -0.242884      0.646481
O       9.41929      9.70737      9.32736         0.611169     -0.318121     -2.101781
O       3.75673      2.10417      2.60735         0.382093     -0.916434      0.333710
O       3.89438      1.86235     15.54276        -0.394913      0.311390      0.692940
O       3.85031     13.38235      2.64662        -0.069279     -0.381135      0.656164
O       3.89798     13.47146     15.59633        -0.594868      0.230938      0.697003
O       0.01600      1.69616      2.67284         0.022363      0.600912      0.305689
O       0.00116      1.84338     15.67600        -0.791739     -0.295240      0.576326
O       0.02527     13.62742      2.63625         0.279356     -0.468583      0.501699
O      15.42355     13.55233     15.66833         0.743048     -0.487852      0.122590
O       3.76744      2.01088      7.05777        -0.088610     -0.476499     -0.161001
O       3.82483     13.34959      7.12144         0.436175      1.286445     -0.495173
O      15.41288      2.03012      6.98870         0.262451     -0.845207      0.039844
O       0.03117     13.60671      7.14365        -0.957186     -0.217698     -0.069339
O       3.88716      1.83554     11.48244        -0.591190      0.331980     -0.254410
O       3.89280     13.48859     11.32972        -0.461405      0.387394      0.201067
O       0.00288      1.89177     11.40178         0.022420      0.079665     -0.343156
O      15.45986     13.66533     11.21776         0.161602     -0.506971      0.310298
O       3.70079      5.77465      2.82489         1.210766     -0.375196     -0.771543
O       3.75293      5.75245     15.75596         0.626038      0.145228     -0.134930
O      15.43223      5.92670      2.69423         0.104394     -0.123808     -0.017966
O      15.43724      5.90453     15.77772        -0.578658     -0.509613     -0.032147
O       3.79932      5.84891      6.98146         0.348135      0.059926     -0.083572
O      15.44441      5.90679      6.94775        -0.264677     -0.273528      0.141752
O       3.72420      5.78870     11.49420         0.904087     -0.764377     -0.217855
O       0.05606      5.86356     11.39000        -1.355318     -0.324629      0.059530
O       3.86381      9.74965      2.78882         0.042892     -0.516134     -0.417539
O       3.78388      9.64053     15.66899         0.136523      0.216084      0.491742
O      15.42394      9.53844      2.65963         0.007320      0.159303      0.345808
O      15.44834      9.67271     15.74511        -0.046003      0.442706      0.000556
O       3.93093      9.87362      6.77569        -1.164327     -1.081033      0.597911
O      15.43622      9.71786      6.97430        -0.217373     -0.324164      0.256521
O       3.86648      9.69587     11.57382        -0.648362      0.162282     -0.256804
O       0.09701      9.72267     11.51262        -1.209887      0.153209     -0.948081
O       7.72879      1.81059      2.65335        -0.645449     -0.164929      0.596271
O       7.76946      1.97980     15.69169        -0.434116      0.133797      0.153235
O       7.77567     13.48279      2.60732        -0.335478      0.170658      0.486019
O       7.75995     13.38624     15.67561        -0.154773      0.406489      0.185120
O       7.66550      1.99581      7.17792        -0.386484     -0.292440      0.002240
O       7.73545     13.52541      7.10724        -0.192270      0.283931     -0.230425
O       7.69710      1.85966     11.52980         0.538909      0.710583     -0.721643
O       7.66802     13.47980     11.45554         1.197086      0.045761     -0.099667
O       7.65468      5.91026      2.72538         0.198384     -0.702051     -0.362549
O       7.66582      5.79203     15.70224         0.181527      0.083855      0.085644
O       7.65739      5.67163      6.93725         0.243124      0.364189      0.275991
O       7.65752      5.89281     11.33512         0.165892     -0.300899     -0.047179
O       7.83819      9.45402      2.69400        -1.295476      0.520953     -0.266799
O       7.68832      9.71304     15.66548         0.302098     -0.413042      0.461875
O       7.62354      9.65668      7.08621         0.943421     -0.290965     -0.158557
O       7.63394      9.57839     11.51445        -0.089699     -0.115795     -0.468549
O      11.56846      1.95294      2.88431        -0.055865      0.396962     -0.618602
O      11.54989      2.00202     15.76478         1.021873     -0.004305     -0.055336
O      11.68555     13.48886      2.80204        -0.423253     -0.135593      0.135404
O      11.62997     13.43505     15.62362        -0.239244      0.276309     -0.140538
O      11.56270      1.86296      7.06123         0.613767      0.406770      0.346272
O      11.54247     13.62032      7.10071         0.593811     -0.281176      0.086479
O      11.57003      2.05297     11.33614         0.392515     -0.308061      0.332080
O      11.55935     13.59218     11.36304        -0.202977     -0.724820     -0.082941
O      11.62515      5.57694      2.70046        -0.583013     -0.047141      0.283126
O      11.58243      5.82808     15.82597         0.478722     -0.338315     -0.301573
O      11.61829      5.86654      7.04619        -0.051457     -0.187749     -0.185577
O      11.56256      5.83191     11.34607         1.007761     -0.208406     -0.149594
O      11.61275      9.73014      2.65700        -0.141281     -0.466072      0.251216
O      11.62241      9.67381     15.67131        -0.378677     -0.547026     -0.141725
O      11.53111      9.61864      7.01028         0.620918      0.361671      0.474140
O      11.56542      9.69940     11.40449         1.020417     -0.030224     -0.556626
O       1.77708      3.89407      2.65288        -0.345482     -1.197737     -0.134067
O       1.81226      3.81559     15.75176         0.430178      0.316545     -0.178926
O       2.06081     15.36153      2.55547        -0.191503      0.871768      0.811895
O       1.89283     15.37320     15.65816         0.213664      0.206404      0.322376
O      13.76914      3.78162      2.92438        -0.596177      0.391021     -0.815556
O      13.71210      3.84671     15.71916        -0.951302     -0.350756     -0.586888
O      13.54492     15.45374      2.58919        -0.434919     -0.183841      0.664761
O      13.45123     15.42278     15.87622         0.257698      0.420000     -0.479925
O       1.86266      3.98266      6.94402         0.001350     -1.237230      0.160603
O       1.91646     15.43163      6.87532        -0.037057      1.136259      0.727145
O      13.48698      3.89374      6.97801         0.119644     -0.210236     -0.126900
O      13.47172      0.01260      7.14073         0.503471      0.380822      0.078419
O       1.86974      3.79342     11.24495         0.244716      0.314891      0.631165
O       1.96137     15.44218     11.36002         0.215021      0.046474     -0.346326
O      13.57941      3.91346     11.43948        -0.381563      0.117133      0.183794
O      13.40772      0.06775     11.33003         0.303414     -0.052697     -0.222254
O       1.98047      7.73740      2.64517        -0.069910     -0.051373      0.091826
O       1.83455      7.76703     15.87807         0.491233     -0.840941     -0.349105
O      13.34112      7.63358      2.42040         0.311641      0.682665      0.915405
O      13.60312      7.78303     15.98834        -0.186108     -0.523619     -1.142014
O       1.84631      7.76500      6.84702         0.670138      0.137466      0.547883
O      13.49590      7.76648      7.04838         0.049523     -0.312609      0.071384
O       2.00981      7.77422     11.48691        -0.356702      0.021421     -0.767915
O      13.62522      7.74930     11.37193        -0.605277      0.705396     -0.477005
O       1.88113     11.49029      2.55167        -0.530737      1.463051      0.868380
O       2.01268     11.59133     15.63323        -0.610987     -0.021291      0.322055
O      13.63151     11.55881      2.72814         0.023571      0.230501      0.366087
O      13.54094     11.57389     15.38001         0.327496      0.377872      0.565528
O       1.85243     11.57928      7.03266        -0.214524     -0.640642      0.181139
O      13.55403     11.64280      6.94305        -0.454426     -0.441741      0.282837
O       1.99695     11.68711     11.36571        -0.459308     -0.847650      0.134403
O      13.56358     11.66496     11.29417        -0.142246     -1.021613      0.710970
O       5.79068      3.75735      2.58177         0.314986      1.078153      0.301336
O       5.80891      3.91019     15.78970        -0.499876     -0.034391     -0.047744
O       5.60935     15.32601      2.82402         0.593652      0.691871      0.067541
O       5.87602      0.04681     15.71746        -0.181740     -0.923744     -0.377659
O       5.64707      3.81790      7.04146         0.403490      0.681373      0.257064
O       5.68430     15.42773      7.20485         0.065607     -0.375351     -0.331689
O       5.79610      3.75244     11.42012        -0.354715      1.605480     -0.179502
O       5.84471     15.42947     11.40058        -0.378348     -0.182812      0.107167
O       5.64136      7.64026      2.83498         0.512984      0.648338     -0.338375
O       5.70392      7.66373     15.67445         0.157902      0.138613      0.323951
O       5.79163      7.64185      7.00301        -0.276676      0.579070     -0.241213
O       5.58451      7.65031     11.36637         0.209371      1.028487      0.048601
O       5.88012     11.49704      2.66251         0.197583      0.754767     -0.004951
O       5.80465     11.57486     15.65148        -0.362041     -0.444122      0.430910
O       5.83343     11.58531      7.18993         0.024585     -0.021006     -0.824665
O       5.80062     11.58844     11.58740        -0.572118     -0.589779     -0.660781
O       9.50846      3.82839      2.78788         0.394626      0.156606     -0.081785
O       9.68874      3.87974     15.81033        -0.422891      0.630594     -0.345463
O       9.73033     15.44689      2.70850        -0.039630     -0.343020      0.257125
O       9.70895     15.44933     15.53693        -0.142863     -0.354098      0.449346
O       9.63165      3.85935      7.21643         0.414194      0.098012     -0.550745
O       9.56250      0.02443      7.21482         0.281096     -0.722883     -0.172477
O       9.61155      3.89793     11.26564        -0.036472      0.071664      0.516238
O       9.60199     15.44525     11.42200         0.313643     -0.227106     -0.296524
O       9.69741      7.64760      2.77800         0.591298      0.252586      0.012722
O       9.61707      7.72669     15.81208         0.046829      0.029979      0.008481
O       9.65267      7.74680      7.07114        -0.418882     -0.615839      0.186884
O       9.73296      7.72433     11.32395        -0.234302     -0.562912     -0.203116
O       9.69544     11.50200      2.80693        -0.215142      0.623524     -0.398950
O       9.71670     11.56676     15.64758        -0.407281     -0.414647      0.258468
O       9.62747     11.59288      6.97870         0.117234     -0.341973      0.542679
O       9.56190     11.51488     11.42674         0.447852      0.362754      0.118767
