  # total energy = -7845.75877804 
CRSYTAL
PRIMVEC
    15.6080000000000005    0.0000000000000000    0.0000000000000000
     0.0000000000000000   15.6080000000000005    0.0000000000000000
     0.0000000000000000    0.0000000000000000   16.6239999999999988
PRESSURE
2.95549 3.42886 0.268823 -0.155689 -0.098202 0.23982
PRIMCOORD
320 1
Pb       4.22941      4.03363      4.26941        -0.291211     -0.667738     -0.153134
Pb       4.11415      3.66237      0.00380        -0.609290      0.892666      0.664269
Pb       4.25499      0.06781      4.17526        -0.305093      0.412494     -0.092254
Pb       3.94807      0.19266      0.38525        -0.507735      0.130090     -0.591786
Pb       0.37406      3.90163      4.20120        -0.799559      0.887157      0.281746
Pb       0.06009      3.87207      0.18845         0.294912      0.932361      0.430901
Pb      15.46762      0.08102      4.15901        -0.550545     -0.740315      0.077645
Pb       0.03507      0.09066      0.04591         0.338720     -0.652773     -0.347013
Pb       4.02146      3.72843      8.18782        -0.508671      0.728354     -0.123857
Pb       3.93645      0.00850      8.77114         0.918457      0.427459     -1.068327
Pb      15.55253      3.73264      8.31335        -0.273609      0.183483     -0.659018
Pb      15.22645     15.51219      8.07940         0.916362     -0.158568      0.669977
Pb       3.64952      3.83198     12.26606         2.081575      0.327321      0.904985
Pb       3.80514      0.40257     12.38220         0.479701     -1.095399      0.891009
Pb       0.26249      3.91114     12.43960        -1.747921     -0.864494      0.886713
Pb      15.20997     15.32243     11.92284         0.457847      1.267360      1.870937
Pb       3.94826      8.24207      4.16300        -0.412952     -1.347985      0.243262
Pb       4.01731      7.96490      0.02803        -0.973354     -0.368503     -0.346202
Pb       0.17441      7.66347      4.14634        -0.383425      0.600200      0.854941
Pb       0.10611      8.22188     16.49400        -0.186042     -1.909917      0.311238
Pb       4.19219      7.92096      8.74498        -1.191513     -0.957103     -0.408511
Pb       0.01976      7.80198      8.58982         1.049467      0.235461     -1.072945
Pb       3.80527      7.49230     12.79919         0.040958      0.877530     -0.480841
Pb      15.58927      7.56107     12.52449         0.831271      0.411953      1.440350
Pb       3.67046     12.04295      4.68030         0.613639     -1.152633     -0.713399
Pb       3.43756     11.88517      0.34428         0.508438      0.150621     -0.859537
Pb       0.23863     11.61658      4.14609        -1.701668      0.122766      0.580446
Pb      15.39756     11.62332     16.35953         0.668892      1.219079      1.077915
Pb       3.75383     11.51801      8.34013         0.088925      0.052587      0.019022
Pb      15.43596     11.59596      8.19293        -0.057601     -0.018207     -0.086198
Pb       4.46410     11.86739     12.49339        -2.268101     -0.870379      0.877286
Pb      15.24646     11.80372     12.50693         0.994915      0.199819     -1.062675
Pb       8.18568      3.97969      3.61103        -2.463907     -1.084838      2.027986
Pb       7.82901      3.99651     16.41968        -0.163391     -1.410425      1.062016
Pb       8.39720     15.57905      4.12815        -1.805001      0.366576     -0.372530
Pb       7.60919     15.26027     16.55749         0.877486      1.595820     -0.703318
Pb       7.46299      4.05403      7.91506         2.226857     -1.012736      1.712387
Pb       7.67634      0.05137      8.38621        -0.012981     -0.660335     -0.410200
Pb       7.91096      3.91035     12.41311        -0.498585      0.316531      0.767447
Pb       8.22315      0.30493     12.73929        -2.296185     -1.358649      0.281864
Pb       7.52439      7.87479      4.06472         1.109157     -0.409610      0.626918
Pb       7.61275      7.91476      0.25392         0.225686     -0.889503     -1.165516
Pb       7.68166      8.07589      8.28559         0.551739     -1.157689     -0.047316
Pb       7.69180      8.07903     12.52395         0.016210     -2.256218      0.658124
Pb       7.66776     11.83922      4.02534         1.276408     -0.125281      0.860043
Pb       8.00491     12.14936     16.59351        -0.827010     -1.363736     -0.376625
Pb       7.59309     11.39998      7.95099         1.283121      1.724487      1.635932
Pb       7.92807     11.40851     12.76767        -0.020914      1.510893     -1.072826
Pb      11.27265      3.75851      3.92141         2.206747     -0.190162      0.134024
Pb      11.84452      3.70130     16.53799        -0.381578      1.261437      0.566742
Pb      11.67937     15.33920      4.34091         0.143214      0.284228     -0.662540
Pb      12.10078     15.59997      0.32689        -1.036093     -0.112900     -1.159127
Pb      11.54516      4.07041      8.61023        -0.119351     -0.222522     -1.110645
Pb      11.59068      0.31280      8.12368         0.372550     -1.381381      0.182175
Pb      11.52648      3.39480     12.39100         0.974780      2.305343      1.222643
Pb      11.48959     15.21232     12.29125         0.800333      0.130029      0.389502
Pb      11.11664      7.52841      4.22201         1.944620      0.642718     -0.814332
Pb      11.99142      7.92442     16.59993        -0.137835     -0.581820      0.472558
Pb      11.97638      7.55167      8.85943        -1.072664      0.605533     -1.189658
Pb      11.55610      7.68591     12.67964         0.178279      0.199354     -0.343251
Pb      11.33244     11.45063      3.87124         2.088758      0.363535      1.834055
Pb      11.92683     11.39820     16.21167        -1.053356      0.959299      1.961175
Pb      11.20242     11.67938      8.25841         0.906509      0.334086      0.112503
Pb      11.75225     11.56121     12.37259        -1.579877     -0.085457     -1.333072
Ti       2.00179      1.82865      2.46056         0.644844      1.674853     -2.024435
Ti       1.83795      1.87206     14.76069         1.799990     -0.324183      0.491274
Ti       1.91582     13.75873      2.44291        -0.654863     -0.197478     -0.115153
Ti       1.77581     13.74166     14.29154         0.946131      0.295047      4.301428
Ti      13.70987      2.06336      2.13789        -0.293789      1.346985      2.112967
Ti      13.72639      1.96423     14.57839        -0.659505     -1.368926     -0.808744
Ti      13.61203     13.57564      2.01625        -0.339044     -1.437779      2.017404
Ti      13.52532     13.67468     14.57411         0.721994      2.117559     -0.321004
Ti       1.91561      1.92082      6.19017        -0.468465      1.134412      0.727754
Ti       1.88554     13.79503      6.62964        -1.482845     -0.925202     -0.618216
Ti      13.50968      1.86023      6.03062        -0.031148      2.855881     -0.482491
Ti      13.42117     13.43322      6.26279        -0.830970     -0.368688      0.040194
Ti       1.83339      1.87996     10.25258        -1.856686      0.628984     -1.118197
Ti       1.94315     13.68435     10.39506        -0.457649     -2.689145      0.951149
Ti      13.49008      1.87029     10.51379         2.876994      1.183074     -1.061593
Ti      13.41282     13.52745     10.19358        -1.410274     -0.283706     -0.419934
Ti       2.06799      5.84972      2.22978         0.261740      0.158709     -1.331875
Ti       2.06704      5.75054     14.94245        -2.096708      0.300509      0.795813
Ti      13.71363      6.08384      2.34377        -1.166954     -1.561893     -1.039883
Ti      13.74853      5.78560     14.86335         0.318785      0.740686     -0.073642
Ti       2.17038      5.85838      6.63058        -0.895318      0.012040     -0.041874
Ti      13.84686      5.73487      6.29469        -0.995320     -0.298143     -2.579912
Ti       2.03920      5.75220     10.56175        -0.853218      1.820741     -3.159500
Ti      13.72944      5.74413     10.84499        -1.811354     -2.628744     -0.539741
Ti       2.02410      9.79815      2.16874        -1.026085     -1.147771     -0.445891
Ti       2.04468      9.96613     14.62784         0.970681     -1.359227     -0.615626
Ti      13.73871      9.74258      2.36463        -1.177774      1.676861      0.174965
Ti      13.77601      9.74326     14.41399        -1.593070     -1.812964      3.330857
Ti       1.77553      9.61819      6.42084        -0.110770      0.991980      0.779340
Ti      13.59187      9.48756      6.27948        -1.540368      1.251838     -1.958835
Ti       1.82939      9.81257     10.79565         1.355453      0.663429     -0.684403
Ti      13.69976      9.55607     10.61511        -3.085712      1.618245     -1.934334
Ti       6.07527      1.94704      2.18875        -0.410294      1.058994      0.576350
Ti       5.80686      1.85706     14.64889         1.007597      0.864905     -0.772670
Ti       5.83064     13.68361      2.22187         0.654691     -0.661099      1.228905
Ti       5.54467     13.79538     14.56206         2.202499     -1.643035     -0.955656
Ti       5.70714      1.84629      6.23787         2.865829      1.000249     -0.738259
Ti       5.74671     13.65344      6.32571         2.066943     -0.230550      1.667907
Ti       5.97255      1.95263     10.51249        -0.379617     -0.588760     -0.886646
Ti       5.76774     13.75518     10.47885         3.182145     -0.515259      0.163393
Ti       5.76342      5.92785      2.05201         2.842215     -1.198308      2.620397
Ti       5.76457      5.81988     14.71668         1.586607     -1.707045     -1.651223
Ti       5.98934      5.96015      6.16546        -1.047510     -0.664320     -0.670914
Ti       5.87930      5.78634     10.60655         2.158167      0.810708     -0.111472
Ti       5.88105      9.89086      2.16792        -0.460542     -0.924606     -0.868089
Ti       5.75885      9.80283     14.72082         2.007942      0.634047     -0.372794
Ti       5.72294      9.64001      6.33065         2.082588      2.452777     -1.903443
Ti       5.70783      9.74225     10.69687         0.523649     -0.570352     -0.347311
Ti       9.83317      1.79519      1.81859        -0.482102      0.439295      0.855473
Ti       9.83735      1.90520     14.76847        -0.570665     -0.692100     -0.445292
Ti       9.88744     13.65600      1.99902         0.141244     -1.830391     -0.422243
Ti       9.80802     13.56259     14.52358        -0.955403      1.548089      0.110283
Ti       9.59765      1.86965      6.38976        -1.875075      1.985362     -1.373666
Ti       9.53513     13.60532      6.31109         1.102853     -1.464313     -0.721338
Ti       9.76251      1.78277     10.36524        -1.982950      1.869987     -1.267613
Ti       9.42112     13.49847     10.55460        -0.448981     -2.236144     -0.985152
Ti       9.75104      5.90493      1.88644         1.185955     -0.935447      1.806661
Ti       9.78370      5.93279     14.69859        -1.112187     -1.740057     -0.498592
Ti       9.88844      5.76600      6.28780        -0.353297     -0.862033      0.344380
Ti       9.82502      5.78112     10.68790        -1.384272     -0.141091     -0.509389
Ti       9.57182      9.66815      1.97396         2.561632      0.213487      0.865087
Ti       9.66615      9.64401     14.72655        -0.150144     -0.066313     -0.778649
Ti       9.85605      9.49860      6.28614        -1.035466      1.233328      0.293587
Ti       9.61339      9.52673     10.37944         0.928183      2.468968      2.686221
O       1.88255      1.65121      0.55463         0.758948     -0.158897     -0.474769
O       2.08198      2.34741     13.02489        -0.778220     -1.151437     -0.260385
O       2.06611     13.83072      0.70928        -0.152753     -0.187887     -1.035055
O       1.81197     13.90241     12.65423        -0.176383     -0.261171     -4.298586
O      13.70626      1.73762      0.35257         0.261420      0.253653     -0.730515
O      13.65826      1.92280     12.76398         0.134641     -0.351696      0.981006
O      13.62938     13.60723      0.17716         0.238251     -0.428640     -0.036058
O      13.41646     13.65432     12.67313         0.806015     -0.226860      0.467912
O       2.11730      2.14428      4.33453        -0.406172     -0.256948      1.405313
O       1.87495     13.38536      4.87802        -0.127534      0.578749     -2.320398
O      13.50208      1.84749      4.21033         0.092120     -0.392719      0.952132
O      13.25570     13.76134      4.43093         1.444098     -0.715656      0.834623
O       1.76678      1.97774      8.47887         0.557512     -0.589498      0.580282
O       1.75998     13.44089      8.61094         1.060185      0.329420      0.375859
O      13.52563      2.09941      8.71060        -0.313392     -1.373619      0.380734
O      13.16584     13.61469      8.44048         1.069903      0.620095      0.486801
O       2.10216      6.13315      0.45528         0.215492     -0.403797      0.711414
O       1.88241      5.62661     13.05114         0.416355      0.159729     -0.449636
O      13.64710      6.10216      0.53390         0.904079      0.063705     -0.326938
O      13.77830      5.85165     13.07133         0.410770     -0.190272     -1.021281
O       2.04569      5.79289      4.85756         0.056132      0.227588     -1.812715
O      13.83254      5.99096      4.44597        -0.029985     -1.258123      1.077237
O       1.99197      5.78516      8.63185        -0.750597      0.145165      3.282225
O      13.30473      5.61690      8.95461         1.159078      0.914116      0.316257
O       1.91538      9.98403      0.26455        -0.089384     -0.350394      1.147197
O       2.08317      9.76687     12.87944         0.005243      0.415105     -0.166381
O      13.87229      9.89709      0.29251        -0.612855     -0.304962      0.379885
O      13.47801      9.58249     12.77880        -0.109945      0.635432     -3.525892
O       1.97752      9.71295      4.63134         0.291382      0.040094     -0.609668
O      13.53612      9.82082      4.38856         0.109589     -1.074220      2.312683
O       1.65587      9.80365      8.88675        -0.467908     -0.335993      1.237318
O      13.64313      9.66201      8.71584         0.998057     -1.363489      1.553036
O       5.78388      1.97371      0.36128         0.342390     -1.444622     -0.026018
O       5.64575      1.75133     12.77433        -0.046513      0.593755      0.461803
O       5.90797     13.61267      0.45385        -0.814507      0.108668     -1.326007
O       5.87657     13.62915     12.75630        -1.529633      0.589701      0.722793
O       5.88844      2.05562      4.41068        -0.663072     -0.879325      0.458345
O       5.88670     13.54786      4.56576        -0.732714     -0.075410     -0.606508
O       5.93445      1.70675      8.51143        -1.471362      0.727571      1.181194
O       5.89568     13.61352      8.63110        -0.879281      0.966103      0.854818
O       5.79061      5.87753      0.32447        -0.093809      0.100229     -1.867721
O       5.80927      5.53493     12.86983        -0.872165      0.698595      0.455326
O       5.89291      5.65011      4.37570         0.436309      1.053796      1.192205
O       6.06416      5.86792      8.70817        -0.797055      0.347886      1.382098
O       6.01431      9.56991      0.20194        -0.350468      0.589810      1.795365
O       5.60987      9.63956     12.82446         0.479754     -0.135236     -0.819961
O       5.70683      9.82619      4.44990        -0.117959     -0.127006     -0.212960
O       5.83334      9.66298      8.75076        -0.127798     -0.451510     -0.798520
O       9.74639      1.60763      0.06078         0.257409      0.315265      0.114616
O       9.70300      2.11712     12.74378        -0.077644     -1.293685      0.198146
O       9.93112     13.58327      0.13486        -1.259000      0.292988      0.474876
O       9.71146     13.52914     12.70521        -0.089801     -0.168962      0.657622
O       9.74284      1.93005      4.39267        -0.305566     -0.177409      0.536729
O       9.78781     13.38300      4.40792        -0.672363      2.153150      0.379063
O       9.64610      1.90900      8.42509         0.627772     -0.556260      2.327967
O       9.37448     13.42875      8.76298         0.453171      0.699146     -0.744353
O       9.83928      5.85304      0.21237        -0.201215      0.672087     -3.350432
O       9.53722      5.69742     12.79961         1.600576      0.123889      2.239398
O       9.85852      5.52653      4.32226        -0.462768      1.192881      1.461431
O       9.79808      5.90626      8.76802         1.037278     -0.139642      0.714122
O       9.70363      9.47485      0.15218        -0.947669      0.591832     -0.452147
O       9.51928      9.71730     12.57967         0.737499     -0.471880      2.815343
O       9.80816      9.52737      4.51977        -0.256298      0.408809     -0.700579
O       9.52611      9.76232      8.62631         0.318555     -1.018510     -1.305272
O       4.07881      1.71244      2.50026        -0.876909     -0.228340     -0.678378
O       3.91470      2.01472     15.06889        -1.359701     -1.628885     -0.282826
O       3.84814     13.71482      2.72383         0.892445     -0.594493     -0.275648
O       3.80458     14.14305     14.78881        -1.653536     -1.375452      0.018054
O       0.01436      1.93884      2.53311         0.085228     -0.631620     -0.041478
O       0.12932      2.22881     15.18886        -2.446119     -1.060024     -0.903193
O      15.57672     13.78296      2.58622        -0.075244     -0.931908     -0.074058
O      15.60249     13.78081     14.75450        -1.934498     -2.119761     -0.078241
O       3.82675      1.78349      6.40143         0.312936      0.113465      0.797534
O       3.79988     13.44742      6.63436         0.789110      0.885365      0.439770
O       0.00479      2.14803      6.07844        -0.125456     -1.002602      0.547934
O      15.51831     13.59886      6.56374        -0.927631     -0.171080      0.780405
O       3.73134      2.02110     10.68495        -0.526599     -0.525084     -0.703008
O       3.90529     13.41252     10.68636        -1.771882      1.104961     -0.843880
O      15.52224      1.92546     10.60481         0.526519     -1.305803      0.412447
O      15.31720     13.79059     10.33387         0.662777     -0.818673      0.076740
O       4.13875      5.65603      2.64096        -2.974096      0.786370     -0.848494
O       3.89711      5.85074     15.00888         0.267759     -0.337326     -0.105471
O       0.18105      6.07980      2.61673         0.286465     -1.489314     -1.046553
O       0.08983      5.87225     15.31392        -0.817196      0.349003     -0.765245
O       3.93632      6.08249      6.84331         1.620560     -0.548268     -0.500917
O       0.05464      5.42472      6.55683        -1.360252      1.239434      0.637730
O       3.84347      5.96283     10.71291        -0.011132     -1.514264      0.351161
O       0.03144      5.87962     10.91396        -1.007702      0.179383     -0.373307
O       3.84650      9.84844      2.27950         1.378589     -0.048785     -0.142143
O       4.06777      9.94702     15.06377        -4.129307     -0.644240      0.626653
O      15.52449      9.74378      2.54486         2.822947      0.237318     -0.373249
O      15.60220      9.99466     14.71131         1.455996     -0.733736     -0.129641
O       4.02508      9.40163      6.64212        -3.114890      0.818022      0.572684
O      15.45824      9.76002      6.52155         0.792067      0.129074      0.457123
O       3.77668      9.73221     10.57173        -0.591549      0.176916      0.280692
O      15.42899      9.71320     11.18536         1.103981     -0.366741     -0.795055
O       7.92926      1.73947      2.24394         0.595407     -0.195117      0.032659
O       7.78116      1.73065     14.78966         0.126472      0.591556      0.148549
O       7.87608     13.69373      2.34301        -0.238001     -0.985828     -0.356870
O       7.71345     13.60861     14.71431         1.142953     -0.020558      1.670907
O       7.70418      2.14492      6.30807         0.664449     -0.441815      0.896687
O       7.67721     13.40633      6.56412        -0.663754      0.962627     -0.414139
O       7.71652      1.93287     10.60776         2.321944     -0.519014      0.209883
O       7.59932     13.69193     10.97934        -0.251085      0.180170     -0.876968
O       7.86813      5.77155      2.33696        -1.255632      0.759409     -1.006694
O       7.86097      5.71798     15.11766        -0.021027      1.596035     -1.301804
O       7.77640      5.74956      6.37974         0.251046      0.422717      0.249133
O       7.77369      5.79936     11.15375        -1.089269      0.390543     -2.085543
O       7.72551      9.77367      2.69587         0.093641     -0.339875     -1.394048
O       7.73527      9.56451     14.76176         2.111045      0.040050      0.102658
O       7.80558      9.66541      6.40990        -0.185851      0.343187      0.841843
O       7.61144      9.38439     10.72700         0.889985      0.657651     -0.699766
O      11.64224      1.78878      2.28348         0.514546      0.848356     -0.931721
O      11.82387      1.72430     14.97259        -0.728215      1.518591     -0.467252
O      11.71362     13.23010      2.18266        -0.096272      1.964267     -0.136981
O      11.68109     13.43470     14.71742         0.596274      0.473272      0.006668
O      11.48054      1.68684      6.25110         1.989208      0.058701      0.774762
O      11.52736     13.52134      6.45735        -0.427013      2.144608      0.446592
O      11.66141      1.84155     10.69239        -2.280598      0.322064     -0.323136
O      11.31100     13.47061     10.71089         2.375183      0.280851      0.108258
O      11.69915      5.67067      2.26813         0.418522      1.253398      0.862901
O      11.90458      6.03700     15.20354        -1.365553     -1.403769     -1.079464
O      11.73811      5.88978      6.35939        -0.397182     -0.464204      0.801574
O      11.73423      5.60334     11.24017        -0.701967      0.447415     -1.223332
O      11.36519      9.50145      2.26570         0.507031      0.530615      0.075579
O      11.72264      9.58370     14.81368        -0.888917      1.278359     -0.302698
O      11.69946      9.44553      6.65441        -0.181551      0.251103      0.093454
O      11.60945      9.71475     10.71087         0.318978     -0.476070      0.009624
O       2.13345      3.93617      2.29564        -0.793152     -0.052408      0.429370
O       1.90912      3.96534     15.39442         1.133650     -0.365835     -0.714323
O       1.93849      0.01131      2.71794         0.081338     -0.544198      0.666278
O       1.45529     15.59952     14.64309         1.647518      2.710671      0.752469
O      13.81164      3.89865      2.16853        -0.434195     -0.979018      0.342162
O      13.62362      3.83899     14.99277         0.213860      0.227128      0.197059
O      13.42986     15.40489      2.32117         0.472625      0.400899     -0.142692
O      13.62504     15.56747     14.79082         0.657877     -0.088507      0.230238
O       2.01947      3.80301      6.78747         1.012662     -0.071290     -0.599723
O       1.68876      0.02136      6.49794         0.505247     -0.084379      0.355782
O      13.58525      3.63558      6.61853        -0.607721      1.374637     -0.447041
O      13.70190      0.04903      6.47768        -0.905941     -0.273508     -0.167769
O       1.60411      3.87658     10.59064         1.702414      0.120055      0.456705
O       1.83220     15.57446     10.30271         0.774078     -0.122178      0.941802
O      13.71151      3.76464     10.88672        -0.421661      0.872376      0.028422
O      13.19407     15.40528     10.59854         1.086751      1.425700     -0.010808
O       2.18709      7.85635      2.55432        -0.482147      0.492276     -0.158377
O       2.15615      7.95120     14.94340        -0.469851      0.238942      0.038598
O      13.85575      7.90981      2.59203        -1.020052     -1.515226     -0.491113
O      13.59661      7.93901     14.87251         1.786317     -0.692039      0.387841
O       1.86780      7.89319      7.06610        -0.871692     -1.169641     -0.708413
O      13.79409      7.65984      6.44056         0.419324     -0.372720      1.335603
O       1.87004      7.73357     11.17317        -0.060366      0.076789     -1.335353
O      13.33847      7.63489     10.95995         1.531907      0.730943     -0.964422
O       1.92457     11.62427      2.50602         0.069669      1.466278      0.220745
O       1.94065     11.82452     14.92170         0.510749      0.727711     -0.082471
O      13.45489     11.57976      2.60529         1.411610      0.900498     -1.204804
O      13.64531     11.68633     14.63421         0.196533      0.196522      0.243547
O       1.83808     11.53009      6.71476         0.868338     -0.441482      0.387525
O      13.25710     11.69738      6.72589         1.667608     -1.158536     -0.763164
O       1.71735     11.79926     11.00093        -0.317112     -0.421935     -0.740293
O      13.49419     11.67364     10.59024         0.611533     -0.776189      1.119626
O       6.13592      3.78986      2.34924        -1.107116      0.040674     -0.379973
O       5.81475      3.74427     14.92916         0.395403      0.544115      0.382866
O       6.05698     15.41831      2.59469        -0.966950      1.633400     -0.250461
O       5.87185     15.54645     14.85922         0.209334      0.906060      0.896551
O       5.70713      3.98274      6.54836        -1.414550     -0.509352     -0.203286
O       6.07027      0.07355      6.50092        -0.950220     -2.265383     -0.292027
O       5.84851      3.69759     10.73301        -0.883025      2.869512     -0.143416
O       5.66037      0.04852     10.77140        -1.154650     -1.384029     -0.960199
O       5.84303      7.82079      2.40283        -0.106995      0.250958     -0.376788
O       5.81857      7.58907     14.74148        -0.244698      2.006979      0.638040
O       6.06656      7.86423      6.19018        -0.276261     -2.182213      0.900836
O       5.66788      7.68480     10.82028         0.005170     -0.508330      0.071878
O       5.96289     11.61289      2.38235        -0.580706      2.212612     -0.367264
O       5.89433     11.62680     14.68547        -0.015780      1.177744      0.323348
O       5.80774     11.64032      6.63751        -1.695897     -0.050453     -0.641433
O       5.92207     11.54732     10.81195        -0.109584      0.937191     -0.238737
O       9.78068      3.90932      1.91136         0.063760     -2.398490      0.782557
O       9.68286      3.79703     14.94050         1.323010     -0.199847      0.031765
O       9.88057     15.47489      2.24117         0.182216      0.827844      0.309586
O       9.72516     15.52718     14.53538         0.402559     -0.106316      0.203344
O       9.66436      3.96687      6.73025         1.025669     -0.357859     -0.537065
O       9.42872     15.55681      6.63974         0.382074      0.245728     -0.435758
O       9.62108      3.87931     10.67804         0.915037     -1.493959     -0.114482
O       9.55785      0.02969     10.74219         0.754249     -0.198487     -0.500333
O       9.47379      7.66939      2.37354         0.206269      2.130160      0.003442
O       9.94411      7.72295     14.60192        -0.957684      0.979315      0.493704
O       9.58455      7.71010      6.38505         0.233860     -1.344667      0.325763
O       9.76711      7.66769     10.83193         0.366554      0.421195     -0.191296
O       9.75666     11.71488      2.40483        -2.407325     -1.868021     -1.767856
O       9.74115     11.67706     14.86512        -0.526911     -2.006571     -0.299485
O       9.67639     11.78462      6.43094         0.106654     -2.324045      0.955884
O       9.51908     11.51002     10.72286        -0.337851      0.232754      0.217438
