  # total energy = -7880.67909893 
CRSYTAL
PRIMVEC
    15.464    0.0000000000000000    0.0000000000000000
     0.0000000000000000   15.464    0.0000000000000000
     0.0000000000000000    0.0000000000000000   17.350608
PRESSURE
-0.718248 -0.382167 1.1446 -0.205301 -0.156741 0.060333
PRIMCOORD
320 1
Pb       4.02761      3.88019      4.50491        -0.514010      0.417948     -0.825794
Pb       4.07772      3.76239     17.11950        -0.786097      0.608462      1.277031
Pb       3.77458      0.22784      4.27694         0.096880     -1.197085     -0.385467
Pb       4.03460      0.11565     17.26177        -1.124052     -0.909523      0.473839
Pb       0.22427      3.81753      4.50126        -0.505083      0.612253     -1.047676
Pb      15.38944      3.63910     17.29298         0.334675      1.248836      0.007536
Pb      15.34148     15.44457      4.15236         0.528966     -0.388402      0.158876
Pb      15.38708     15.46005     17.33865         0.742601      0.096120     -0.593453
Pb       3.84286      3.92228      8.61305         0.092030     -0.336361      0.008435
Pb       3.87078     15.34724      8.56090        -0.393326      0.360143     -0.297144
Pb      15.34213      3.74451      8.53928         0.561373     -0.026187      0.635437
Pb      15.32041     15.38495      8.58643         0.219243      0.145260     -0.041554
Pb       3.75717      3.71823     12.83780         0.741746      0.030856      0.482747
Pb       3.99258     15.27024     13.05272        -0.193086      0.223181     -0.072675
Pb       0.09011      3.99792     12.91461        -0.260778     -0.477636      0.032500
Pb       0.08241      0.16527     12.94395        -0.281829     -0.625679      0.297881
Pb       3.71211      7.83010      4.22202        -0.080798     -0.104385      0.271716
Pb       3.59723      7.62436      0.01008         1.042392      0.062801      0.842623
Pb      15.30332      7.72118      4.23789         0.778340     -0.077289      0.219621
Pb      15.38436      7.69399     17.24193        -0.109593      0.040455      0.473522
Pb       4.01512      7.88854      8.66435        -0.249652     -0.383884     -0.210174
Pb       0.20979      7.56443      8.81612        -0.486339      0.327429     -0.321267
Pb       3.88836      7.66739     12.85026         0.234409      0.251592      0.781903
Pb       0.08291      7.92548     12.83018        -0.152535     -1.260961      1.521534
Pb       3.94401     11.68563      4.31275        -0.915302     -0.328043     -0.071566
Pb       3.98168     11.53113     17.30560        -0.652099      0.368356      0.139366
Pb      15.24593     11.63304      4.32551         0.702307     -0.131965     -0.048430
Pb      15.46362     11.63317     17.25870         0.084073     -0.651449      0.203962
Pb       3.84175     11.61924      8.72165        -0.154851      0.024760     -0.765144
Pb      15.23514     11.53550      8.51232         0.750897     -0.257673      0.735780
Pb       3.84370     11.45049     13.03543         0.002978      0.497557     -0.283201
Pb      15.38420     11.74287     12.74659        -0.019656     -0.359649      1.035758
Pb       7.67494      3.78485      4.44040        -0.111847      0.695999     -0.952532
Pb       7.78378      3.88812     17.33115        -0.755084     -0.236784     -0.273548
Pb       7.83326     15.44510      4.22360        -0.295297     -0.626647      0.212653
Pb       7.60271      0.07234      0.13007         0.416229     -0.582840     -0.605391
Pb       7.83706      3.93803      8.52785        -1.036057     -0.333927      0.284477
Pb       7.73030      0.12477      8.59490        -0.055715     -0.169118      0.102435
Pb       7.78968      3.74545     12.95319        -0.759749     -0.109038     -0.351703
Pb       7.98129      0.00532     13.14285        -1.537136     -0.191583     -1.053900
Pb       7.72345      7.88573      4.29709        -0.369658     -1.024237      0.232417
Pb       7.82273      7.70321      0.00383        -0.840110     -0.118328     -0.066617
Pb       7.90510      7.63671      8.71441        -0.940343      0.381878     -0.169688
Pb       7.69166      7.65040     12.99869        -0.631514      0.520635     -0.428059
Pb       7.74055     11.64672      4.31098        -0.288355     -0.012860     -0.127024
Pb       7.63931     11.41954     17.31239         0.278925      0.183016     -0.034338
Pb       7.59747     11.73743      8.51727         0.147377     -0.969213      0.476496
Pb       7.75857     11.46933     12.91250         0.086385     -0.052061      0.306065
Pb      11.36891      3.77694      4.49727         0.911963      0.398746     -0.890485
Pb      11.49830      3.97363      0.01247         0.706040     -0.414933     -0.450692
Pb      11.66128     15.34782      4.31928        -0.445217      0.263672     -0.154155
Pb      11.54891      0.08272      0.15237        -0.176197      0.013118     -1.114232
Pb      11.72639      3.91831      8.80752        -0.299982     -0.465494     -0.568681
Pb      11.40822     15.36432      8.45851         0.456756      0.239048      0.543655
Pb      11.66296      3.89757     13.11179         0.278272     -0.526921     -0.515883
Pb      11.51448     15.32296     13.18441         1.007664      0.410916     -0.734888
Pb      11.59715      7.64816      4.18594        -0.132008      0.539652      0.292357
Pb      11.59107      7.63035     17.22496         0.401290      0.737106     -0.222983
Pb      11.57535      7.53449      8.78680         0.346082      0.967776     -0.337512
Pb      11.37977      7.65884     13.06727         1.052543      0.513869     -0.067867
Pb      11.50174     11.60567      4.29395        -0.284685     -0.254002     -0.143358
Pb      11.48028     11.69833     17.27327         0.309800     -0.845927     -0.428614
Pb      11.26738     11.51313      8.53059         1.031273     -0.294756      0.346351
Pb      11.61088     11.65887     12.75000         0.005483     -0.246266      0.839479
Ti       1.94243      1.94096      2.22934         0.606995     -0.004369      0.303422
Ti       1.92196      1.97957     15.28762         0.119578     -0.848437      0.468373
Ti       1.82123     13.43924      2.26378         1.498548      0.540885      0.895253
Ti       1.99337     13.56496     15.32127         0.309848      0.613318      1.391049
Ti      13.54458      1.99395      2.33134        -0.384027      0.544856      2.510616
Ti      13.45621      1.87775     15.31572         0.242230      0.254706      0.636651
Ti      13.38034     13.45365      2.14879         0.350796      0.263960      0.614410
Ti      13.61705     13.47327     15.31264        -0.868809      0.825103     -0.199791
Ti       1.87803      1.91094      6.57542         0.772752     -0.253389      2.223733
Ti       1.83847     13.48369      6.65908         0.184087     -0.274667     -1.412822
Ti      13.48869      1.83232      6.63215        -0.612160      0.077545     -0.751161
Ti      13.45871     13.35643      6.63311        -0.448637      0.861539      0.800155
Ti       1.92006      1.80297     10.83910         0.383214      0.970744     -0.327817
Ti       1.92429     13.48345     11.00939         0.349981      0.118174     -1.397631
Ti      13.57244      1.87573     11.04174        -0.293178      0.050643      0.461474
Ti      13.46910     13.56315     10.80066         0.664555      1.198595      0.407373
Ti       1.95928      5.73576      2.33280        -0.530615      0.191672      0.409907
Ti       1.95519      5.78268     15.31829        -0.599385     -0.236618      0.307272
Ti      13.48898      5.74636      2.40268         0.721128     -0.516786     -0.092066
Ti      13.53442      5.74706     15.27374         0.693877     -0.155920     -0.279381
Ti       1.86678      5.81361      6.68410         0.812243     -0.229771     -0.637871
Ti      13.49071      5.79578      6.72536        -0.311011      0.022822      1.087824
Ti       1.99944      5.76124     10.98300        -0.133653     -0.394858     -0.505742
Ti      13.54811      5.77921     11.10124         0.213132     -0.365710      0.514591
Ti       1.76405      9.70748      2.34755         1.214946     -0.561940      0.386467
Ti       1.92714      9.69174     15.37064        -0.637496     -0.383539      0.305673
Ti      13.39865      9.70586      2.22958         0.262660     -1.242625     -1.553126
Ti      13.54436      9.66978     15.19929        -0.204339     -0.019867      0.154387
Ti       1.84267      9.66361      6.67175         0.687690      0.420984      0.924987
Ti      13.44904      9.47035      6.71725         0.201399      0.821721      0.600783
Ti       1.93642      9.61952     10.85707         0.104366      0.355604      1.357411
Ti      13.51905      9.58805     11.01628        -0.752368     -0.257754     -1.151851
Ti       5.82923      1.88204      2.38310        -0.219759      0.205473      1.009195
Ti       5.80783      1.83235     15.21069         0.317559      0.807540     -0.071008
Ti       5.69779     13.47597      2.32035        -0.053910      0.517945      1.471957
Ti       5.86935     13.44797     15.31557        -0.805924      0.572513     -0.877361
Ti       5.75330      1.91289      6.63062        -0.409055      0.544705      1.500982
Ti       5.76532     13.53058      6.47226        -0.198621      0.026206     -0.343601
Ti       5.77643      1.73208     11.02251         0.715963      1.178815      0.607323
Ti       5.85197     13.44687     11.02651         0.281210      0.642073      1.012990
Ti       5.77511      5.83196      2.39718        -0.257748     -0.201708     -0.527466
Ti       5.77951      5.80325     15.27722         0.069890     -0.146035     -0.151682
Ti       5.68849      5.90105      6.64162         1.067865     -0.972628      2.151800
Ti       5.79502      5.68430     10.99835         0.306435      0.255056      0.108758
Ti       5.70970      9.62154      2.35687        -0.343020      0.302374      0.243925
Ti       5.76472      9.49526     15.44013         0.322532      0.035041     -0.377472
Ti       5.75718      9.67866      6.57088         0.032282      0.092678      1.850518
Ti       5.79828      9.70237     11.00893         0.983941     -1.008671      0.963420
Ti       9.74679      1.91856      2.42345        -1.070195      0.119642      0.893620
Ti       9.57028      1.83224     15.42534         0.295856      0.148549      0.217896
Ti       9.56148     13.40374      2.17126        -0.121617      0.511056      1.350039
Ti       9.65092     13.50520     15.35309        -0.234150      0.070985      1.664306
Ti       9.70462      2.02755      6.61133         0.044879     -1.049276      0.714656
Ti       9.56967     13.46886      6.55631         0.001034      0.520140     -0.046643
Ti       9.78169      1.94447     10.97488        -0.800356     -0.616964     -0.221126
Ti       9.63014     13.54298     10.86873        -1.428923      0.418337     -0.443740
Ti       9.59135      5.83099      2.24413        -0.495486     -0.773811      6.005929
Ti       9.58490      5.74834     15.22287         0.110795      0.167730      0.905887
Ti       9.63314      5.84687      6.55335        -0.194033      0.098739      1.459788
Ti       9.73299      5.76558     11.08320        -1.102315     -0.299056      1.438744
Ti       9.54748      9.59867      2.30093         0.269067      0.512483      0.515187
Ti       9.65272      9.61546     15.31148        -0.153636      0.444645      0.359980
Ti       9.62706      9.55336      6.56225        -0.482582      0.332349      1.303137
Ti       9.77526      9.60184     10.94582        -1.397003      0.458483      1.491830
O       1.98412      1.95787      0.47517        -0.236065      0.006792      0.170793
O       1.88967      1.83905     13.54085         0.096308      0.455235      0.120108
O       2.04964     13.39418      0.54558        -0.471455      0.182061     -0.169066
O       1.93828     13.66693     13.58535        -0.052862     -0.689144     -0.585697
O      13.46847      1.94611      0.62362        -0.207560     -0.078064     -1.514251
O      13.60613      1.97413     13.59303        -0.347085     -0.327198     -0.336838
O      13.35261     13.44408      0.37485         0.183100      0.237456      0.975421
O      13.60698     13.69746     13.54212        -0.309979     -0.549462      0.832781
O       1.97556      2.01251      4.85687        -0.332213     -0.393733     -1.290806
O       1.63292     13.42174      4.85106         0.540571      0.148358      1.479538
O      13.42273      1.87080      4.85691         0.016937     -0.258356      0.465606
O      13.39737     13.43265      4.86476         0.200172     -0.169367     -0.037323
O       1.86009      1.90945      9.06415        -0.115650     -0.250224      0.732169
O       2.02296     13.42049      9.21824        -0.096968      0.470100      0.975407
O      13.62066      1.81999      9.29172        -0.170729      0.389613     -0.690368
O      13.50927     13.66592      9.00717        -0.207837     -0.652743      1.315699
O       2.00672      5.73657      0.57635        -0.195963      0.026101     -0.054683
O       1.92046      5.94835     13.57249         0.001101     -0.419803      0.148751
O      13.51141      5.68370      0.64872        -0.379560      0.041812     -0.324828
O      13.53521      5.61699     13.49788         0.071244      0.262185      0.675455
O       1.82886      5.71743      4.89593        -0.123010      0.131612      1.124923
O      13.54265      5.92730      5.01628        -0.324509     -0.077819     -0.534954
O       2.05690      5.70951      9.22247        -0.186365      0.236482     -0.356311
O      13.42324      5.55661      9.35147        -0.048324      0.725713     -0.478259
O       1.85157      9.58184      0.62907        -0.133052      0.407831     -1.069485
O       1.77791      9.70258     13.63253         0.236748     -0.276244     -0.416419
O      13.48739      9.65711      0.41757        -0.326276     -0.050577      1.881148
O      13.66948      9.66114     13.40187        -0.278640      0.256668      1.008013
O       2.02668      9.68669      4.95469        -0.594969      0.013267     -0.664803
O      13.52886      9.46866      4.97168        -0.411541      0.136357     -0.416942
O       1.91903      9.61541      9.14538        -0.026335      0.179005     -0.252973
O      13.41179      9.64417      9.24336         0.339506      0.083312      0.955243
O       5.91438      1.73622      0.63426        -0.061343      0.706561     -0.384762
O       5.74790      1.87740     13.46639         0.162290     -0.068352      0.059309
O       5.67245     13.58629      0.58697         0.184315     -0.251016     -1.109798
O       5.66860     13.63037     13.52861         0.533471     -0.902858      1.245812
O       5.70059      1.98161      4.90086         0.361715     -0.071513     -0.930823
O       5.83364     13.55627      4.67564        -0.162487     -0.230966      1.771856
O       5.91816      1.81865      9.29040        -0.255845     -0.257278     -0.782497
O       5.91955     13.40958      9.27511        -0.462465      0.266458     -0.399172
O       5.67801      5.88473      0.62821         0.436162     -0.566510      0.664006
O       5.78000      5.89114     13.50806         0.094865     -0.163668      0.725152
O       5.71501      5.69791      4.95934         0.198365      0.213582     -1.867302
O       5.70754      5.76181      9.21824        -0.004417     -0.112447      0.655685
O       5.83693      9.62723      0.60681         0.125548      0.003224     -0.924175
O       5.98066      9.51885     13.70510        -0.610398      0.186788     -0.406328
O       5.52178      9.72300      4.88510         0.682856     -0.368066     -1.054352
O       5.81429      9.76687      9.30484        -0.164040     -0.238973     -1.245782
O       9.57106      1.94633      0.69156         0.152950      0.007624     -1.311374
O       9.54163      1.71573     13.65301         0.471377      0.284590     -0.125602
O       9.59822     13.30148      0.42419         0.276618      0.531207     -0.071775
O       9.66298     13.84318     13.61904         0.283968     -0.761420     -0.529086
O       9.81057      1.90613      4.84482        -0.288491      0.195204      0.556931
O       9.66347     13.40077      4.78358        -0.028441     -0.061711      0.620853
O       9.75561      1.92476      9.19319        -0.293591      0.292163      0.404063
O       9.44977     13.54616      9.08335         0.540709     -0.366100      0.683710
O       9.67288      5.71935      0.61519         0.026136     -0.220947     -4.676049
O       9.56813      5.77674     13.48086         0.366770      0.060280     -0.338780
O       9.76871      5.91615      4.87011        -0.197646     -0.077564     -1.567137
O       9.81142      5.91463      9.38574        -0.249787     -0.715714     -1.755200
O       9.45587      9.60367      0.55916         0.151019      0.037529     -0.466222
O       9.52896      9.68491     13.56631         0.364116     -0.333007     -0.027480
O       9.64096      9.64898      4.83001         0.146065     -0.286821     -0.519136
O       9.67157      9.53500      9.23285         0.140115      0.216535     -0.711776
O       3.90202      1.97224      2.69215        -0.293101     -0.295320     -0.014526
O       3.94651      1.93876     15.67069        -0.626526     -0.038497     -0.245289
O       3.86111     13.54335      2.85605        -0.342377     -0.197186     -0.695009
O       3.92510     13.47809     15.78114        -0.681901     -0.084733     -0.433517
O       0.00555      1.80002      2.60848        -0.357016      0.335473      0.048048
O      15.44608      1.88358     15.73562        -0.037867      0.049254      0.075773
O      15.33734     13.41021      2.58613        -0.378698      0.271087     -0.216878
O       0.04131     13.57187     15.83915        -0.259329     -0.373063     -0.467930
O       3.79008      1.88257      6.93346         0.541166     -0.256672      0.330440
O       3.87817     13.42476      7.04564         0.161459      0.779663     -0.367753
O      15.37169      1.97548      6.84818         0.403412     -0.355818      0.422416
O      15.37730     13.47370      7.01944        -0.181170     -0.064946     -0.019276
O       3.82502      1.88258     11.23632        -0.195654     -0.061700      0.163120
O       3.85837     13.39092     11.49740        -0.587963      0.164437     -0.474056
O       0.03967      1.99800     11.42364         0.087194     -0.194796     -0.266965
O      15.43765     13.58657     11.27841        -0.235200     -0.127643     -0.259283
O       3.78722      5.81287      2.86968         0.545520     -0.244278     -0.321421
O       3.87266      5.65232     15.73818         0.053883      0.650473     -0.501595
O      15.39418      5.74153      2.85419         0.202927      0.157486     -0.401459
O      15.42459      5.64526     15.74457        -0.069207      0.167387     -0.234822
O       3.85299      5.81528      7.01153        -1.053645     -0.029113      0.168334
O      15.44517      5.74642      7.22318        -0.509945      0.002401     -0.523268
O       3.86416      5.79913     11.56358         0.123404     -0.156555     -0.915944
O       0.06590      5.86115     11.30526        -1.190295     -0.300873      0.188438
O       3.82626      9.64678      2.68561        -0.125744      0.268508      0.006729
O       3.82673      9.51674     15.74004        -0.092007      0.646460     -0.146073
O      15.34705      9.67998      2.70204        -0.132834      0.357508      0.024168
O      15.39790      9.65909     15.85368         0.097017     -0.030517     -0.767385
O       3.82180      9.69671      7.13678         0.544046     -0.433427      0.040746
O      15.39495      9.73215      7.06914         0.457964     -0.415666     -0.159033
O       3.86072      9.73249     11.37080        -0.793699     -0.315310     -0.093941
O      15.44646      9.52241     11.30458        -0.030477      0.820001     -0.814698
O       7.77744      1.91328      2.97165        -0.628605     -0.048349     -0.794060
O       7.68222      1.83452     15.81761         0.307203     -0.123938      0.011696
O       7.70375     13.59054      2.64074         0.390251     -0.262683     -0.154416
O       7.70848     13.57391     15.70019        -0.032869     -0.275383     -0.111387
O       7.72837      1.99865      7.07368         0.660243      0.088208     -0.533262
O       7.65143     13.40270      6.90830         0.058119      0.525502     -0.240879
O       7.69064      1.96043     11.46727         0.581191      0.016042     -0.193430
O       7.76831     13.46409     11.44918         0.054481     -0.466654     -0.223397
O       7.68095      5.80135      2.79103        -0.090054      0.004812     -0.218356
O       7.73037      5.85053     15.64719         0.000280     -0.181505      0.283196
O       7.70007      5.78344      7.04656         0.353443     -0.111161      0.056942
O       7.74310      5.85381     11.28722         0.034631     -0.507592      0.193060
O       7.65156      9.71766      2.95741         0.112700     -0.578436     -0.882166
O       7.70349      9.46932     15.86203         0.179357      0.385002     -0.282760
O       7.71918      9.61630      6.97986        -0.121979     -0.216930     -0.331787
O       7.70989      9.63618     11.43819         0.670222      0.088646     -0.297060
O      11.56146      1.92783      2.78299         1.004289      0.116888     -0.315242
O      11.47024      1.80683     15.73127         0.859173      0.264436      0.243083
O      11.48571     13.32466      2.66084         0.825719      0.568503     -0.523468
O      11.55826     13.44959     15.63851        -0.142882      0.388235     -0.006968
O      11.58251      1.85202      7.12046        -1.002486      0.460013     -0.452998
O      11.46987     13.42061      7.00350         0.388914     -0.026870     -0.216988
O      11.65790      1.93070     11.47119        -1.022180     -0.090854     -0.116801
O      11.51588     13.58073     11.28379         0.620294      0.186772     -0.032198
O      11.48732      5.88718      2.65975         0.710414     -0.350009      0.039333
O      11.58395      5.75552     15.66143        -0.158795     -0.361760      0.191423
O      11.50764      5.79159      7.16510         1.174145      0.188737     -0.213375
O      11.59761      5.77015     11.61418        -0.182281     -0.561899     -0.381556
O      11.45130      9.55895      2.56755         0.793750      0.206485      0.271562
O      11.56460      9.61155     15.63679         0.343211      0.024060     -0.100766
O      11.54680      9.54669      7.10431        -0.532866      0.280630     -0.355797
O      11.63333      9.68976     11.47608        -0.448392      0.127225     -0.130264
O       1.90837      3.81895      2.75021        -0.390287     -0.219824     -0.100766
O       2.00512      3.86114     15.68498        -0.502566     -0.446003     -0.263132
O       1.98131     15.42058      2.66055        -0.590064      0.303087      0.082077
O       1.93160      0.02625     15.70336         0.208354     -0.426650      0.231701
O      13.50287      3.84854      2.89171        -0.268910     -0.273767     -0.668554
O      13.43740      3.75013     15.80347        -0.161216      0.584022     -0.093962
O      13.42029     15.39850      2.73468        -0.053025     -0.493812     -0.826428
O      13.52497     15.44330     15.81107        -0.311294     -0.024587      0.035243
O       1.88105      3.83971      7.02677        -0.025849      0.178711     -0.235598
O       1.89612     15.41609      7.03617        -0.107174     -0.119038     -0.232210
O      13.34586      3.81337      7.11493         0.686366      0.357524     -0.279493
O      13.38305     15.40196      7.02532         0.577731     -0.031099     -0.413911
O       1.98619      3.89348     11.36473        -0.375413     -0.894516     -0.096468
O       1.89208     15.44599     11.28107         0.096024     -0.480267     -0.124829
O      13.54899      3.85766     11.45201        -0.165482     -0.097679      0.134782
O      13.52561      0.00213     11.39743         0.102212     -0.619909     -0.269600
O       1.91366      7.73697      2.66836        -0.399447     -0.112274      0.263388
O       1.84160      7.70155     15.87476        -0.034660     -0.387499     -0.848694
O      13.53474      7.75008      2.77060        -0.536861     -0.233586     -0.583372
O      13.53433      7.68805     15.58905        -0.150299     -0.243597      0.097432
O       1.87011      7.72996      7.15593         0.020493     -0.345489     -0.363245
O      13.55896      7.70512      7.32125        -0.006535     -1.474054     -0.522988
O       1.89135      7.65384     11.19742         0.622173      1.905515      0.386940
O      13.27629      7.67669     11.44496         1.120573      0.348228     -0.448823
O       1.99447     11.59069      2.73536        -0.673485      0.019329     -0.085814
O       1.92550     11.54432     15.79533         0.099022      0.556078     -0.338896
O      13.38442     11.54106      2.67468         0.138510      0.472699     -0.041628
O      13.48722     11.59680     15.65032         0.413326     -0.231277     -0.381682
O       1.97030     11.61254      7.15532        -0.663422     -0.167091     -0.315973
O      13.46254     11.48101      6.97272        -0.358056      0.929041      0.018855
O       1.76433     11.50971     11.37002         0.749245      0.390622     -0.234769
O      13.52215     11.68254     11.28781        -0.157009     -0.158238     -0.239616
O       5.78132      3.88598      2.79719         0.285592     -0.478990      0.008573
O       5.98104      3.76159     15.73663        -0.437569      0.936412     -0.261881
O       5.77444     15.45282      2.71666         0.227221      0.555548      0.180340
O       5.71927     15.44965     15.66206         0.555104     -0.470672      0.199732
O       5.68950      3.80806      7.10598         0.501036      0.186465     -0.240821
O       5.83192      0.00585      6.99874        -0.190247     -0.787455     -0.045703
O       5.71514      3.81559     11.41879         0.219622      0.481948     -0.204119
O       5.81338     15.33726     11.48084        -0.313787      0.237733     -0.714814
O       5.71267      7.76997      2.79052         0.552924     -0.737497      0.286413
O       5.72624      7.62189     15.83747         0.134889     -0.057622     -0.353127
O       5.82903      7.72457      7.13117        -0.338224      0.750385     -0.368025
O       5.79613      7.72980     11.48464        -0.319561      0.139669     -0.656630
O       5.83290     11.53264      2.69730        -0.329414      1.149440     -0.062079
O       5.83528     11.51413     15.68170        -0.174447      0.188178      0.166378
O       5.77516     11.57516      6.95693         0.003620      0.380967     -0.059226
O       5.78074     11.58466     11.53538         0.109842     -0.448329      0.039269
O       9.56895      3.84908      2.85548         0.508743      0.316733     -0.237777
O       9.53798      3.84358     15.67565         0.390995     -0.019558      0.297757
O       9.76622     15.38924      2.75342        -0.394743     -0.092541     -0.599267
O       9.59655     15.44024     15.94864         0.299764     -0.575389     -0.236606
O       9.69409      3.95880      6.88909        -0.085319     -1.675786      0.153586
O       9.56448     15.40865      6.90622         0.118320      0.324362     -0.011971
O       9.68926      3.81519     11.49438         0.020615      0.167577     -0.327320
O       9.41510      0.01986     11.20092         1.215653     -0.308514      0.498240
O       9.46396      7.71059      2.64019         0.180245      0.232670      0.079415
O       9.72116      7.65695     15.70928        -0.200558     -0.139316     -0.005132
O       9.61355      7.66832      7.12808         0.164154      0.644204     -0.330725
O       9.77845      7.72846     11.33860        -0.193703     -0.099149      0.531961
O       9.52009     11.53158      2.69256         0.291182      0.403094     -0.159766
O       9.55884     11.51234     15.73548        -0.030737      0.529659     -0.392616
O       9.56506     11.50728      7.02210         0.298806      0.132846     -0.427562
O       9.72564     11.54891     11.33870        -0.207438      0.691280     -0.230794
