  # total energy = -7848.56303499 
CRSYTAL
PRIMVEC
    15.6080000000000005    0.0000000000000000    0.0000000000000000
     0.0000000000000000   15.6080000000000005    0.0000000000000000
     0.0000000000000000    0.0000000000000000   16.6239999999999988
PRESSURE
3.12079 3.86764 0.913542 -0.340045 -0.105503 0.169236
PRIMCOORD
320 1
Pb       4.20240      4.01516      4.25706        -0.068355     -0.054027     -0.228602
Pb       4.09643      3.66952     16.62195        -0.370198      0.852957      0.773801
Pb       4.23180      0.05966      4.16059         0.015456      0.048747     -0.075027
Pb       3.94277      0.19009      0.35539        -0.167325     -0.038350     -1.189287
Pb       0.34205      3.89097      4.19945        -0.812703      0.810064     -0.115004
Pb       0.05698      3.86784      0.16086        -0.193576      0.742717      0.674343
Pb      15.48012      0.07799      4.14988        -0.576504     -0.404665      0.191893
Pb       0.03022      0.08550      0.03567         0.180841     -0.079765     -0.600801
Pb       4.01408      3.73806      8.18675        -0.368967      0.956119      0.131296
Pb       3.93048      0.01430      8.73481         0.762107     -0.026445     -0.629686
Pb      15.56274      3.73580      8.31921        -0.543500      0.317322     -0.504719
Pb      15.25733     15.52291      8.09656         0.374331     -0.218662      0.869735
Pb       3.66279      3.83225     12.26925         1.535164      0.526212      1.308825
Pb       3.81015      0.37554     12.37849         0.390658     -1.198599      1.160825
Pb       0.25061      3.91177     12.42619        -2.502581     -0.592996      1.391213
Pb      15.22902     15.33225     11.94268         0.761163      1.053339      2.317781
Pb       3.94222      8.21787      4.15824        -0.291086     -1.088966      0.289590
Pb       4.02073      7.95450      0.01437        -1.318138     -0.420487     -0.308849
Pb       0.15872      7.67571      4.14480        -0.388390      0.162491      0.522468
Pb       0.08710      8.19309     16.49233         0.120438     -1.561090      0.213803
Pb       4.17830      7.92145      8.70534        -1.470029     -1.215560     -0.083075
Pb       0.02260      7.79963      8.55973         0.734617      0.462023     -0.256228
Pb       3.81303      7.51651     12.76917        -0.017452      0.674771     -0.592676
Pb      15.58644      7.57819     12.50996         0.704530      0.362376      0.866168
Pb       3.68815     12.01503      4.63705         0.896348     -1.038005     -0.541666
Pb       3.47328     11.86422      0.31466         0.327327      0.129171     -0.771011
Pb       0.22265     11.61634      4.13923        -1.298448      0.180316      0.507543
Pb      15.41008     11.62024     16.37694         0.243281      0.896413      0.723501
Pb       3.76833     11.52361      8.31200        -0.022817     -0.030936      0.385410
Pb      15.45317     11.60171      8.18695        -0.337711     -0.194012      0.398682
Pb       4.44310     11.86668     12.47642        -2.472493     -1.418097      0.661380
Pb      15.27698     11.79336     12.50484         0.774613      0.061204     -0.973081
Pb       8.17203      3.97618      3.63685        -2.213317     -1.320541      1.600097
Pb       7.83704      3.99530     16.42417        -0.810408     -1.321948      0.705250
Pb       8.35928     15.57554      4.12357        -1.618690      0.685778     -0.532467
Pb       7.61541     15.27509     16.55326         0.735907      1.892183     -0.784862
Pb       7.47036      4.05242      7.91165         2.352019     -1.052493      2.602824
Pb       7.68498      0.04841      8.37425        -0.156336     -0.429170      0.121283
Pb       7.90097      3.91329     12.40549        -0.404563     -0.024025      1.080312
Pb       8.21076      0.29545     12.70379        -2.521052     -1.221737      1.245541
Pb       7.54193      7.86960      4.06953         0.953729     -0.238664      0.568499
Pb       7.61882      7.90932      0.23576         0.615265     -0.922752     -1.155644
Pb       7.68045      8.05965      8.27828         0.589474     -1.322017      0.502558
Pb       7.70434      8.07580     12.50650        -0.312837     -2.385097      0.437651
Pb       7.67684     11.83095      4.02544         0.627066     -0.009665      0.729710
Pb       7.99142     12.14146     16.58547        -0.471432     -1.425919     -0.458968
Pb       7.60001     11.41741      7.95156         1.237555      1.117533      2.201678
Pb       7.91524     11.41555     12.74188         0.247375      1.546747     -0.869996
Pb      11.28955      3.77792      3.93382         2.199167     -0.629090      0.278637
Pb      11.82761      3.70739     16.53878         0.202180      0.720243      0.217397
Pb      11.67287     15.36653      4.32623         0.432348      0.042862     -0.726231
Pb      12.06441     15.60337      0.30511        -0.895474     -0.106530     -1.648357
Pb      11.54361      4.06465      8.59081         0.129632     -0.141803     -1.104651
Pb      11.59039      0.28309      8.12412         0.770228     -1.007195      0.364346
Pb      11.52985      3.42723     12.37384         0.944124      1.742946      1.460733
Pb      11.50267     15.24010     12.30084         0.909310     -0.272030      0.757126
Pb      11.14005      7.53947      4.21730         2.453716      0.788703     -0.694645
Pb      11.97437      7.92114     16.58599        -0.183586     -0.522154      0.872250
Pb      11.95397      7.56415      8.81771        -0.789170      0.782743     -0.849800
Pb      11.56321      7.69727     12.65983         0.407199     -0.063049     -0.581906
Pb      11.34903     11.45846      3.87034         2.042013      0.522235      1.651407
Pb      11.91453     11.40126     16.22636        -0.904828      1.558055      1.619588
Pb      11.22840     11.67951      8.24930         1.610832      0.362878      0.636286
Pb      11.76041     11.56436     12.37635        -1.300615      0.489221     -0.841979
Ti       2.08100      1.81687      2.43744        -0.505062      2.743946     -2.892232
Ti       1.84367      1.88184     14.75289        -0.054916     -0.000335      1.239939
Ti       1.92413     13.79247      2.40641        -0.430014     -0.454228     -0.488205
Ti       1.79758     13.76870     14.26403         0.562071      1.136008      0.472469
Ti      13.71582      2.10061      2.16122         0.017720      0.867657      0.106735
Ti      13.71063      1.97729     14.63942        -0.075586     -1.391702     -0.173110
Ti      13.64735     13.65550      2.03397        -0.794589     -2.029990      0.336622
Ti      13.58256     13.70098     14.53488         0.022803      1.142396     -0.508493
Ti       1.90954      1.93898      6.22631        -1.067762      1.061352      1.582401
Ti       1.92723     13.78770      6.62822        -1.793000     -1.133757      0.060545
Ti      13.51157      1.82282      5.98403        -0.019035      3.062999      0.623770
Ti      13.39408     13.44803      6.30797         1.425204     -0.807568      0.382172
Ti       1.83756      1.90507     10.23000        -2.019496      0.233491     -0.288555
Ti       1.90658     13.70368     10.40902        -0.166651     -2.074478      4.306012
Ti      13.55021      1.89121     10.54397         1.893816      1.415635     -1.029258
Ti      13.41019     13.56866     10.24572        -1.105331     -0.855977     -0.856673
Ti       2.06176      5.84512      2.19850         0.142079     -0.153898     -1.005061
Ti       2.05520      5.78808     14.98009        -1.987326     -0.189483     -0.185561
Ti      13.68513      6.09423      2.39400        -0.643207     -2.127759     -2.047122
Ti      13.70668      5.83541     14.91994         1.857263     -0.600179     -1.201883
Ti       2.21424      5.85728      6.66877        -2.139160      0.408360      0.679240
Ti      13.85838      5.73374      6.31106        -1.527717     -0.077494     -1.825473
Ti       2.06504      5.74661     10.51865        -2.208197      2.871288     -1.994701
Ti      13.68675      5.78096     10.83373        -0.445853     -1.920069      0.108881
Ti       2.06884      9.80075      2.24973        -1.455979     -1.210112     -1.911785
Ti       2.10300     10.03335     14.65333         0.067221     -2.883239     -1.486078
Ti      13.70921      9.79981      2.36747        -1.252780      0.156138     -0.706364
Ti      13.72276      9.71388     14.46245        -0.283153     -0.728775      1.658336
Ti       1.76097      9.63305      6.47705        -0.032227      0.651135      1.170443
Ti      13.55334      9.49212      6.25158         0.521786      0.967363      0.280533
Ti       1.83132      9.87780     10.85805        -0.092164      0.081705     -1.290093
Ti      13.61876      9.61893     10.62337        -1.230749      0.945049     -1.508117
Ti       6.11114      1.93245      2.24453        -0.344005      0.734852     -1.192912
Ti       5.80654      1.82020     14.73121         1.870669      0.698457     -0.956305
Ti       5.81447     13.67916      2.23150         0.679395     -0.811775      1.203081
Ti       5.59262     13.67692     14.63378         1.023708      0.708690     -0.402486
Ti       5.69063      1.86263      6.24435         2.870743      0.856387     -0.984319
Ti       5.79673     13.64182      6.36686         1.142891     -0.297028      0.325022
Ti       5.90620      1.93656     10.48320         1.063063      0.817831     -0.145664
Ti       5.78193     13.68969     10.57699         1.367464     -0.049708     -0.709332
Ti       5.77938      5.88181      2.07866         2.286886     -1.493602      0.230282
Ti       5.76631      5.83799     14.75452         1.678728     -1.860353     -2.197062
Ti       6.08876      5.98619      6.19960        -3.069544     -1.096103      2.445154
Ti       5.91847      5.75369     10.62744         1.496188      1.266036     -0.284836
Ti       5.90190      9.91067      2.13068        -1.197417     -0.335463     -0.763350
Ti       5.79602      9.78272     14.75348         0.584100      0.687012     -0.805360
Ti       5.74615      9.63498      6.36266         0.780120      2.178820     -1.869735
Ti       5.66780      9.67518     10.69851         0.530858     -0.410702     -0.026825
Ti       9.85134      1.75941      1.81712        -0.635785      1.301216     -0.417073
Ti       9.82710      1.91138     14.79258        -0.590612     -1.449999     -0.798738
Ti       9.84045     13.60287      2.05343         0.685421      0.203598     -1.731253
Ti       9.80440     13.58439     14.59552         0.042493      1.615979     -0.939562
Ti       9.55584      1.89927      6.42442        -0.212650      1.936163     -1.607531
Ti       9.56196     13.61746      6.34791         1.143788     -1.700691     -0.723531
Ti       9.78069      1.75267     10.42662        -1.454623      3.125052     -1.181064
Ti       9.37284     13.49474     10.55977         1.191973     -1.788501      0.786679
Ti       9.73661      5.83967      1.91473         1.266834     -0.333528      0.398837
Ti       9.77143      5.94129     14.78039        -0.972438     -1.041174     -1.562240
Ti       9.92332      5.79484      6.23583         0.293165     -1.032993      1.221660
Ti       9.84777      5.75568     10.69169        -1.287412      0.431755     -0.464462
Ti       9.59086      9.61818      2.05917         2.708474      0.212359     -1.259305
Ti       9.68515      9.63895     14.62193         0.031582      0.759891     -0.622997
Ti       9.90697      9.51274      6.34740        -1.009120      1.445144      0.085018
Ti       9.59211      9.56202     10.37570         0.948438      1.024558      4.564306
O       1.85983      1.53962      0.47511         1.018453     -0.071218      0.983766
O       1.98541      2.32826     13.02159         0.146903     -0.913736     -0.205634
O       2.02681     13.90661      0.68371         0.036608     -0.225760     -0.261584
O       1.78326     13.95573     12.51290        -0.014107     -0.454769      0.088467
O      13.63335      1.79975      0.29195         0.158481      0.053731      0.982748
O      13.71006      1.89138     12.87824        -0.091024     -0.421533     -0.930808
O      13.64017     13.53741      0.15473         0.288619     -0.192211      1.300448
O      13.43513     13.63148     12.63638         0.596897      0.095462      0.220570
O       2.08605      2.14666      4.45283         0.120858     -0.166665     -0.663797
O       1.85033     13.32285      4.93122        -0.200281      0.869634     -2.369569
O      13.45107      1.81568      4.16455         0.421702     -0.406996      0.981335
O      13.27628     13.69598      4.50765         0.831162      0.134324     -0.863091
O       1.81056      1.96636      8.45843         0.441666     -0.342047      0.560247
O       1.74629     13.42864      8.76137         0.888278     -0.360533     -4.408840
O      13.61483      2.02117      8.72371        -0.395430     -1.195864      0.417040
O      13.14625     13.69168      8.46106         1.007184      0.367731      0.945309
O       2.13029      6.08087      0.45495         0.199458     -0.248344      0.106884
O       1.83991      5.46888     13.07632         1.063213      1.145792      0.688255
O      13.62369      6.09755      0.52375         0.770917      0.222401      0.561835
O      13.80400      5.86423     13.09614         0.156747     -0.005450     -0.333161
O       2.10945      5.79348      4.91053        -0.057559      0.198712     -2.030870
O      13.81126      5.92068      4.47899         0.270683     -0.971923      0.404190
O       1.93842      5.82386      8.68352        -0.471210     -0.069371      1.855634
O      13.27192      5.68212      9.00822         0.907229      0.157209     -0.667266
O       2.00882      9.94477      0.32810        -0.298156     -0.376333      1.163895
O       2.12885      9.79868     12.87675         0.123825      0.292719      0.785189
O      13.76296      9.87671      0.32300        -0.264215     -0.168064      0.192618
O      13.41869      9.62319     12.80001         0.183999      0.217882     -1.898487
O       2.00216      9.77758      4.68175         0.287499     -0.291936     -1.935436
O      13.51221      9.79497      4.51551         0.456780     -0.410115     -0.475578
O       1.50507      9.84409      8.92282         0.247065     -0.178413      1.058417
O      13.64185      9.60216      8.77983         0.614357     -0.667324      1.057582
O       5.92069      1.88164      0.34694        -0.080780     -0.990529      1.107720
O       5.62928      1.71734     12.87691        -0.235284      0.695762     -0.503818
O       5.81110     13.66975      0.48354        -0.425910     -0.052511     -1.460622
O       5.81606     13.63185     12.85620        -0.887295      0.354082     -0.274609
O       5.88289      2.11890      4.37870        -0.688419     -1.152361      0.825648
O       5.84705     13.43708      4.57500        -0.371156      0.271822      0.120782
O       5.86620      1.70776      8.55117        -1.192374      0.707151      0.874729
O       5.85497     13.60700      8.74976        -0.543645      0.830983      0.268903
O       5.79016      5.86283      0.31363        -0.075368      0.298640     -0.680198
O       5.79658      5.68010     12.86231        -0.623994      0.149292      1.082545
O       5.94172      5.62567      4.55641        -0.261498      0.273989     -2.966796
O       6.15450      5.87717      8.73394        -0.795084      0.455059      0.512895
O       6.02453      9.61740      0.22674        -0.310487      0.493499      1.387479
O       5.68086      9.57999     12.82318         0.173041      0.324430      0.331405
O       5.66100      9.91578      4.51935        -0.048966     -0.536833     -0.406280
O       5.86291      9.59023      8.80070        -0.236401     -0.102411     -1.438450
O       9.69409      1.53764      0.03702         0.473587      0.452268      1.300287
O       9.69148      2.02662     12.83452         0.509028     -0.221508     -1.021919
O       9.90696     13.55329      0.14178        -1.284797      0.311664      1.051103
O       9.59797     13.52576     12.74519         0.443698     -0.037887      0.476940
O       9.69341      2.00494      4.47421        -0.261829     -0.299481      0.227267
O       9.79492     13.48779      4.46048        -0.705485      1.602459      1.044397
O       9.64822      1.88211      8.57908         0.490288     -0.351571      0.239462
O       9.33505     13.44048      8.79833         0.468574      0.577123     -1.249375
O       9.75042      5.96524      0.20605         0.295464      0.306593     -1.004010
O       9.63290      5.55795     12.90501         0.996718      0.819157      1.742991
O       9.84629      5.55051      4.32804        -0.633875      1.124750      0.338521
O       9.85238      5.92539      8.78191         0.942527     -0.727125      0.516995
O       9.63703      9.55883      0.20723        -0.638043      0.428655      1.036563
O       9.54588      9.67484     12.69208         0.723709     -0.275073      1.801459
O       9.84318      9.45043      4.60440        -0.443800      1.141218     -1.932332
O       9.54950      9.75968      8.70525         0.312589     -0.602809     -4.121800
O       4.02189      1.63628      2.36261        -0.313450      0.103380      0.451824
O       3.89247      1.95126     15.19202        -1.446834     -1.432461     -0.882463
O       3.86440     13.74179      2.77108        -0.083321     -0.385745     -0.401339
O       3.75655     14.11204     14.77954        -0.633671     -1.406174      0.017764
O       0.05290      1.95248      2.47433        -0.377553     -0.975548      0.633248
O       0.04268      2.19129     15.26162        -0.353121     -1.411409     -1.256263
O      15.56232     13.67949      2.54298         0.190741     -0.359641      0.303370
O       0.00677     13.73802     14.62741        -1.137118     -2.356556      0.379101
O       3.85804      1.78582      6.42018         0.051724      0.207022      0.704502
O       3.86937     13.47063      6.61938        -0.582463      0.921573      0.574946
O      15.57302      2.09607      6.11237         0.358521     -0.917175      0.295294
O      15.39903     13.57333      6.58116         1.011723      0.067204      0.711639
O       3.72787      2.03647     10.73098        -0.225653     -0.289375     -1.137240
O       3.86883     13.42113     10.78345        -0.662609      0.885282     -1.038906
O      15.55256      1.93112     10.68424         0.918750     -1.039561     -0.215006
O      15.30190     13.72334     10.37607         0.990471     -0.485440      0.024667
O       4.13086      5.67449      2.61756        -3.051802      0.353179      0.030212
O       3.94579      5.79501     15.00930        -1.267663     -0.466187      0.037771
O       0.20003      6.04614      2.61475        -0.064101     -0.948297     -0.463908
O       0.01130      5.87820     15.38056         0.818145      0.373687     -0.778293
O       3.92986      6.04632      6.95597         2.304355     -0.531956     -0.487436
O       0.01998      5.53686      6.61386        -0.376905      0.635417      0.527099
O       3.83113      5.89988     10.68154         0.904880     -1.242406      0.502408
O       0.00965      5.87623     10.92467        -0.886228      0.194930     -0.348205
O       3.88479      9.79543      2.25823         1.637391     -0.121043      0.401914
O       4.00768      9.93601     15.07678        -0.969148     -0.691672      0.250905
O      15.51207      9.77956      2.40749         2.101905     -0.055222      0.544234
O       0.07013      9.98159     14.75848        -0.494184     -0.879423     -0.018731
O       4.00039      9.35764      6.73163        -1.325444      1.236052      0.142811
O      15.51233      9.74471      6.62468        -0.498200      0.066319     -0.326830
O       3.72692      9.79566     10.59922         0.808442      0.065371      0.004202
O      15.42598      9.71091     11.26727         0.010285     -0.293235     -1.013391
O       7.93819      1.75348      2.32005         0.154321      0.139860      0.172213
O       7.81293      1.81132     14.76517        -0.650830      0.070638      0.338441
O       7.85876     13.63413      2.38910         0.039807     -0.355988     -0.212699
O       7.69129     13.64381     14.73252         0.428973     -0.399802      1.849261
O       7.75492      2.15187      6.34155        -0.831005     -0.315494      0.775844
O       7.64697     13.36240      6.62461         1.106552      1.108017     -0.660546
O       7.70803      1.96534     10.57532        -0.038113     -0.519843      0.389483
O       7.57850     13.66031     11.03511         0.311428      0.163648     -0.809278
O       7.83366      5.78517      2.27421         0.066746      0.489619     -0.252460
O       7.84360      5.84775     15.13670         0.237442      0.611845     -0.910019
O       7.79206      5.67883      6.41774         2.378677      0.779115     -0.064621
O       7.77528      5.76063     11.11834         0.140461      0.757784     -1.417943
O       7.69172      9.72463      2.61487         0.546296      0.000867     -0.480971
O       7.81739      9.55805     14.67347        -0.608677      0.118432      0.784141
O       7.74443      9.71026      6.38059         0.252131      0.129885      0.963912
O       7.60737      9.39549     10.69393         1.338086      0.173322     -0.161194
O      11.65087      1.87676      2.29898         0.721578      0.743223     -0.781397
O      11.82043      1.79274     14.94160        -1.445743      0.751962     -0.047443
O      11.67451     13.32541      2.17146         0.302692      1.497702      0.406211
O      11.72962     13.49604     14.70923        -1.202257      0.146772      0.022471
O      11.44260      1.65811      6.24436         2.436687     -0.271569      0.795341
O      11.60758     13.63464      6.51754        -3.915886      1.834261      0.419704
O      11.66356      1.79339     10.70732        -1.306248      0.257683     -0.268342
O      11.34156     13.43256     10.75436         0.835428      0.669091     -0.125957
O      11.75345      5.68538      2.25301        -1.090965      0.796135      0.984104
O      11.93476      6.01993     15.17879        -3.451643     -1.079102     -0.504906
O      11.77013      5.83005      6.37186        -0.755334      0.220028      0.599876
O      11.81688      5.65653     11.29654        -1.897624      0.128634     -1.097422
O      11.45358      9.58083      2.34008        -0.368207      0.435105     -0.015923
O      11.70795      9.66078     14.76839        -0.167978      0.559957      0.037992
O      11.76115      9.38396      6.62772        -1.682350      0.419643      0.540614
O      11.59473      9.62126     10.74819         0.275298     -0.062961     -0.008059
O       2.05557      3.86600      2.19126        -0.103772      0.110243      1.182165
O       1.89340      3.91170     15.47320         1.474288      0.319426     -1.223592
O       1.88958      0.05818      2.82588         0.208996     -2.193449      0.590593
O       1.34055      0.00746     14.61150         2.140703      1.955234      0.676970
O      13.91101      3.89651      2.19585        -0.957279     -0.654798      0.707096
O      13.62027      3.78070     14.94959        -0.122937      1.919439      0.611836
O      13.40083     15.43343      2.22984         0.864005      0.413992      0.693552
O      13.63040     15.48480     14.81211         0.489799      0.989835      0.453996
O       1.94205      3.83197      6.87009         1.319053     -0.232464     -0.994251
O       1.73074      0.01343      6.53831         0.520900     -0.464984      0.135991
O      13.56512      3.61568      6.62422        -0.392787      0.848292     -0.597027
O      13.75060      0.03907      6.49275        -1.341724      0.244148     -0.593427
O       1.58761      3.94982     10.65040         2.152446     -1.618072     -0.519328
O       1.84635     15.59216     10.23071         0.812293      0.512595      0.938763
O      13.66291      3.74275     10.88248        -0.424923      0.329894     -0.104061
O      13.33150     15.41937     10.64064        -0.081859      1.635572     -0.150564
O       2.15862      7.80066      2.47678        -0.110355      1.115260      0.694128
O       2.17512      7.89835     14.98391        -0.405238     -0.453024      0.016894
O      13.69020      7.86719      2.66313        -0.176978      0.183910     -0.226376
O      13.62083      7.86771     14.95369         1.401216      0.860340     -0.082279
O       1.87732      7.94568      7.14034        -0.322364     -2.195567     -0.959664
O      13.79743      7.65607      6.47479         0.363581     -0.410081      0.893627
O       1.85190      7.77650     11.13384         0.287612     -0.554180     -0.841563
O      13.41690      7.65033     10.90479         0.870893      0.957010     -0.291556
O       2.02020     11.64499      2.39538        -0.401416      1.744677      1.110515
O       1.98188     11.78808     14.98505         0.281082      2.520125     -0.103760
O      13.40378     11.57024      2.58156         1.223480      0.914902     -0.537018
O      13.64258     11.73859     14.59970         0.367471     -1.845222      0.890458
O       1.86039     11.50088      6.74487         1.077331      0.968092      0.646694
O      13.24209     11.68222      6.72958         1.064972     -1.264181     -0.533722
O       1.66521     11.76169     11.10116         0.116021     -0.017792     -1.059455
O      13.48981     11.69019     10.63435         0.273293     -1.106235      0.762108
O       6.02978      3.78923      2.30605        -0.445520      0.054549      0.250168
O       5.85686      3.70564     14.96003         0.019827      1.510849      0.308769
O       6.12291     15.37633      2.65853        -1.127169      2.608421      0.228770
O       5.86929     15.54901     14.92397        -0.056737     -0.625072      0.805526
O       5.73393      3.95094      6.55850        -1.659291     -1.022417     -0.047796
O       6.09872      0.05688      6.51330        -0.939957     -1.406193     -0.427089
O       5.86947      3.88677     10.74608        -1.011600     -1.707164     -0.370364
O       5.59894      0.03740     10.76976        -0.578458     -0.515274     -0.819387
O       5.86394      7.71553      2.45562        -0.094705      1.653630     -0.127212
O       5.74798      7.62441     14.77880        -0.002308      2.543911      0.873761
O       6.07296      7.81503      6.21439        -0.262337     -0.225438      0.680792
O       5.63858      7.65395     10.85905        -0.082105      0.676912      0.067340
O       5.95555     11.68263      2.32766        -0.415015     -0.019772     -0.056289
O       5.81906     11.65854     14.76656         0.241604      0.340162      0.311743
O       5.79532     11.66168      6.72490        -1.970545     -0.538213     -0.676196
O       6.00782     11.48687     10.80487        -0.813193      1.431243      0.297007
O       9.78385      3.80618      1.83515        -0.286717      0.267819      1.381552
O       9.62340      3.72961     15.02625         1.563709      1.754244      0.056258
O       9.91318      0.00669      2.19256        -0.321336     -2.814536      1.287133
O       9.62957     15.54171     14.55915         0.706031     -0.908277      0.287673
O       9.83624      4.01491      6.63266        -0.068537     -1.266481      0.145466
O       9.33370     15.59426      6.65751         0.727122     -1.152619     -0.497121
O       9.66556      3.87944     10.69538         0.887639     -1.514438      0.049454
O       9.57738      0.04906     10.77833         0.271859     -2.191535     -0.537367
O       9.54711      7.74225      2.38775        -0.080276      0.050480     -0.006846
O       9.92629      7.78496     14.67900        -0.477629     -0.729373      0.326141
O       9.59132      7.75786      6.39507        -0.011329     -2.177603      0.700181
O       9.78746      7.60878     10.72366         0.152580      1.227802      0.681490
O       9.69271     11.80768      2.45412        -1.725153     -2.873789     -1.005000
O       9.63616     11.70098     14.85835        -0.072546     -1.756263     -0.176021
O       9.74893     11.69443      6.46215        -0.134728     -0.330519      0.487768
O       9.55901     11.43872     10.80645        -0.648035      1.228838     -0.100615
