  # total energy = -7844.93368527 
CRSYTAL
PRIMVEC
    15.6080000000000005    0.0000000000000000    0.0000000000000000
     0.0000000000000000   15.6080000000000005    0.0000000000000000
     0.0000000000000000    0.0000000000000000   16.6239999999999988
PRESSURE
2.09537 2.58361 -2.78428 -0.378915 -0.012077 -0.037565
PRIMCOORD
320 1
Pb       3.65789      4.05727      4.11900         1.102620     -0.351554      0.895209
Pb       3.80163      4.05558      0.22685         0.160095     -1.045970     -0.825263
Pb       3.82847      0.07221      4.32358        -0.093300      0.581181     -0.266125
Pb       3.83646     15.40512     16.32851        -0.075754      1.536960      1.925842
Pb      15.55277      3.97191      4.18137        -0.002754      0.688579      0.260236
Pb       0.07515      3.73966     16.51072         0.587836      0.115091      0.386021
Pb       0.07058     15.45957      4.39454        -0.335877     -0.011014      0.074444
Pb       0.23534     15.39584      0.01582        -0.372458      0.597412     -0.235074
Pb       3.92814      3.81479      8.35460        -0.035641      0.635319     -0.833169
Pb       3.85148     15.55901      8.06263         0.583919      0.082948      0.493323
Pb      15.46852      4.07151      8.25389         0.861988      0.285899      0.267385
Pb       0.03239      0.30118      8.38644        -0.581151     -1.702283      0.091561
Pb       4.16359      3.82034     12.42505        -0.169630      0.658707      0.316611
Pb       3.89108     15.43867     12.34365         0.008699      1.734805      0.918539
Pb      15.51742      3.65592     12.47466         0.811562      1.853300      1.201676
Pb       0.15808      0.24738     12.44044        -1.754653     -1.434578      0.381034
Pb       3.69255      7.77659      4.30280         0.661112     -0.832372      0.176062
Pb       3.69807      8.01381      0.10971         0.473161     -1.024087     -0.301232
Pb      15.41396      8.06717      4.16901        -0.091987     -1.423498      0.780203
Pb      15.52518      7.88471      0.24674         0.321305     -0.502493     -0.531579
Pb       3.68097      7.92370      8.33166         0.695295     -0.556105      0.448117
Pb      15.57498      7.51966      8.40477         0.014369      0.292382      0.507654
Pb       3.96790      7.91158     12.49951         0.678334     -0.857294     -0.495089
Pb       0.17161      7.61861     12.73076        -0.721833     -0.840929     -0.621844
Pb       4.06499     11.56031      3.98639        -0.899553      0.172430      0.987406
Pb       3.99981     11.65738     16.43801        -0.358356     -0.205665      0.476543
Pb      15.41835     11.64950      4.50274        -0.127479      0.681404     -0.609095
Pb       0.03335     11.72169      0.11362        -0.241747      0.251166      0.049379
Pb       4.07903     11.70171      8.63014        -0.377123     -0.727727     -0.820874
Pb      15.60677     11.31353      8.51876         0.323672      0.242021     -0.068481
Pb       3.48088     11.80176     12.33959         2.221073     -2.043301      0.387934
Pb      15.57820     11.67057     12.40688        -0.239143     -0.303871     -0.208381
Pb       7.71512      4.07273      4.39241        -0.008806     -1.072615     -0.707758
Pb       7.86107      3.64418      0.13768         0.442608      1.320251     -0.378109
Pb       7.45150      0.20941      3.99965         0.060218     -1.865476      1.185111
Pb       7.83195      0.27807      0.16678        -0.467026     -1.842799     -0.105386
Pb       8.04391      3.90549      8.72525        -0.562278     -0.098312     -0.524893
Pb       7.86140      0.24917      8.33461        -2.168538     -1.676283      0.302615
Pb       7.89330      3.63767     12.68262         0.321559      0.538225     -0.163643
Pb       7.60354     15.26137     12.46081         0.390643      2.123652      0.994811
Pb       7.86419      7.72317      3.92380         0.461992      0.585676      0.709658
Pb       7.94383      7.88170     16.33903        -0.227749     -0.324153      0.364752
Pb       7.91114      7.62061      8.20456        -0.527170      1.051802      0.569937
Pb       7.65281      7.66420     12.58983        -0.143353     -0.278537     -0.136792
Pb       7.62134     11.87349      4.30417         1.459971     -0.238255     -0.366660
Pb       7.55115     11.30799     16.60092         0.521609      1.352983      0.440610
Pb       7.51168     11.92080      8.63739         0.529482     -0.231760     -0.640458
Pb       7.76498     12.02641     12.58430        -0.420257     -1.455376      0.417317
Pb      12.02655      4.11920      4.01105        -0.985237     -1.401985      1.409218
Pb      11.82527      3.80373      0.15087        -0.175278     -0.735708     -0.395485
Pb      11.62472      0.11864      3.87585         0.229446     -1.011797      1.259667
Pb      11.76528     15.52862      0.06327         0.008395     -0.360676     -0.598804
Pb      11.56810      3.85230      8.26268         0.237677     -0.006046     -0.505232
Pb      11.36885      0.10906      8.28364         0.995528      0.145157     -0.017784
Pb      11.81177      4.04332     12.63764        -1.461444     -0.957465      0.289807
Pb      11.75214      0.14929     12.30074         0.317254      0.288001      0.526334
Pb      11.80415      7.86530      3.98163         0.080410      0.709723      0.998486
Pb      11.63106      7.73005     16.51574        -0.413676      1.258459     -0.121654
Pb      11.35353      7.87011      8.10942         1.973733     -1.708214      0.733666
Pb      11.80899      7.84082     12.25755        -0.775467     -0.186624      1.403023
Pb      11.63925     11.83270      4.36235        -0.016958     -0.143733     -0.758056
Pb      11.63481     11.72028      0.28965        -0.370690      0.027341     -0.168901
Pb      11.93648     11.19863      8.21034        -0.471457      0.865384     -0.391105
Pb      11.52920     11.68326     12.31162         0.571684     -0.252338      1.307846
Ti       1.85585      1.85269      2.09825         1.713660      1.980765     -1.013757
Ti       2.01422      1.94524     14.61319         1.426590      0.582641      1.703325
Ti       1.99565     13.67130      2.29650         0.047304     -0.077546     -0.702327
Ti       1.84387     13.55627     14.57950         1.567872      0.087537      1.070050
Ti      13.74743      1.75098      2.09456        -0.792443      2.278663     -0.903278
Ti      13.77450      1.90575     14.73651        -1.328031     -2.194134     -0.032354
Ti      13.62680     13.73967      2.19574        -0.155805     -2.825454      0.463010
Ti      13.61069     13.56116     14.31453        -1.124541      1.244416      3.811231
Ti       1.90301      1.95195      6.31126         1.489094      0.333422     -1.237907
Ti       1.93488     13.46810      6.38349         1.010418      1.021749     -0.256095
Ti      13.71488      1.94373      6.33747        -1.982382     -0.067997     -1.243392
Ti      13.65320     13.80812      6.49134        -0.667937     -0.648495     -0.300015
Ti       1.92264      2.00642     10.58048         1.521993     -0.063421     -1.353089
Ti       1.84971     13.73720     10.40544        -1.763829     -0.806697     -0.808985
Ti      13.67927      2.01831     10.41906        -1.890572     -1.690006     -0.876536
Ti      13.67589     13.47493     10.37278         0.772304      1.518485      0.051539
Ti       1.90422      5.79378      2.25359        -0.369869      0.744236     -0.389582
Ti       2.05600      5.75204     14.78554        -0.048749     -0.096828     -0.332942
Ti      13.63609      5.77807      2.04817         2.160311      0.738696      0.568614
Ti      13.71057      5.86371     14.86550         1.460922      1.351774     -0.770348
Ti       2.06278      6.04999      6.30323         0.244073     -4.979558      1.761083
Ti      13.64683      5.80662      6.50659        -0.107611      2.033224     -0.568145
Ti       1.79379      5.69419     10.61203         2.412493      2.632077      0.614597
Ti      13.52649      5.76771     10.69371         2.012613      1.466752     -1.366651
Ti       1.95234      9.86045      2.33574        -0.423702     -0.888174      0.965464
Ti       1.71420      9.70467     14.53311         1.416941     -0.028714      0.220223
Ti      13.64786      9.89701      2.27029        -2.016306      1.024659     -0.139595
Ti      13.55061      9.87687     14.91085         0.010529     -2.597932     -1.010934
Ti       2.01938      9.78926      6.31243         1.727606     -0.187908     -0.200426
Ti      13.73484      9.67091      6.36922        -0.827663     -1.835139     -0.753395
Ti       1.92797      9.51552     10.49956         0.369984     -0.598305     -1.474786
Ti      13.62934      9.65346     10.65994         1.808994     -0.542988      1.234409
Ti       5.62339      1.93784      2.09857        -0.726693     -0.714798     -0.036159
Ti       5.91726      2.09382     14.69598        -1.779478     -0.585143     -0.901807
Ti       5.85660     13.43230      2.31055         1.311586      1.646189     -1.700424
Ti       5.77858     13.77345     14.78252         2.962794     -0.710706      0.603787
Ti       5.88507      1.98056      6.18034        -2.163534      0.055315      0.309294
Ti       5.85730     13.50243      6.39560         0.085617      0.411400      1.294481
Ti       5.85733      1.89052     10.39162        -0.250194      0.846355      1.185179
Ti       5.56277     13.62034     10.70770         2.902619      0.193978     -0.814212
Ti       6.06468      5.70220      2.13706        -1.732872      0.001431     -0.901421
Ti       5.88294      5.76177     14.85225         0.119469      1.212720     -1.674183
Ti       6.04588      5.77357      6.44857        -3.575504     -0.175773      0.191932
Ti       5.69265      5.87496     10.32579         0.515560     -0.447521      0.272266
Ti       5.87270      9.54160      2.23407         0.203764      1.947758     -1.723696
Ti       5.69324      9.80841     14.42377         1.067511     -2.069485     -0.541743
Ti       5.98113      9.54069      6.21651        -0.896247      0.987891      3.747793
Ti       6.00851      9.67336     10.44017        -1.063477     -0.444893      0.108649
Ti       9.69891      1.94992      2.31702         1.139207      0.471587     -1.221639
Ti       9.88760      1.75639     14.82326         0.817197      1.114950     -2.322416
Ti       9.74700     13.63917      1.92048        -1.810463     -1.487726     -0.241183
Ti       9.83048     13.62895     14.51318        -1.083751     -0.376693      2.192061
Ti       9.70287      1.66596      6.16301         0.725913      4.298156      4.217280
Ti       9.77856     13.61740      6.25203        -0.969028     -0.918587     -1.628803
Ti       9.68104      1.96544     10.63220         0.474278      0.052902      1.088120
Ti       9.71157     13.76883     10.50997         0.071219     -0.040917     -0.612725
Ti       9.90645      5.85244      2.16751        -1.396738     -0.213311     -1.341334
Ti       9.84449      5.68906     14.70049        -1.762489     -0.638234     -1.022633
Ti       9.72176      5.73532      6.19042         2.586809     -0.395446      0.847327
Ti       9.72090      5.83898     10.52909        -1.786000      0.331487      0.766204
Ti       9.75614      9.76526      2.36974        -0.184676      1.615877     -1.831252
Ti       9.67205      9.79496     14.49066         0.900638     -0.775393      0.649408
Ti       9.66028      9.76641      6.42589         0.306181      0.313447     -1.381395
Ti       9.75231      9.72319     10.39658        -1.698889     -1.389859     -0.212128
O       2.05218      2.09585      0.04742        -0.959315     -0.374234      2.594340
O       1.74556      1.92032     12.78608        -0.070553      0.661157     -1.478510
O       2.05142     13.97943      0.15628        -1.418088     -2.122330      1.018378
O       2.08428     13.39647     12.74958        -0.792140      1.773750      0.738034
O      13.62992      1.83404      0.20956        -0.325758     -0.722830      2.401734
O      13.76904      2.07936     12.94869        -0.033516      0.075529     -2.098698
O      13.66078     13.58577      0.41404         1.146543      0.163426     -1.362239
O      13.58926     13.30882     12.64788         0.278567      0.154899     -1.424639
O       2.06706      1.78507      4.30769        -0.922405      0.054988      1.864883
O       2.11604     13.64314      4.37126        -0.297675      0.116821     -0.100754
O      13.81919      1.88431      4.47167        -0.972439     -0.024685      0.350527
O      13.55200     13.69158      4.24229        -0.027079      0.298788      1.221970
O       1.84156      1.54365      8.77119         0.508344      1.848009      0.252369
O       1.79085     13.78330      8.61085         0.108835     -0.635370     -0.016869
O      13.77292      1.86175      8.62345        -0.018975      0.128036     -0.364743
O      14.04113     13.42963      8.57050        -1.239008      0.598441     -0.402362
O       2.15018      5.83690      0.08395        -1.052913     -0.584509      2.179379
O       1.68648      5.64530     12.51018         0.293408      1.499585      1.308246
O      13.68692      5.72450      0.09099        -0.425594      0.294714      1.592973
O      13.73640      6.02567     12.56571        -0.199645     -1.479129      0.540881
O       1.77954      5.57516      4.47849        -0.080380      0.136800     -1.939051
O      13.68320      5.70202      4.31886         0.290565     -0.424533     -0.585727
O       2.00785      5.96341      8.25747        -0.446106     -0.240487      0.337890
O      13.63484      6.21921      8.39938         0.493368     -1.266245      1.203598
O       1.87420      9.58559      0.54820        -0.265172      0.479035      0.150240
O       1.97879      9.81097     12.62947        -0.150679     -1.046204      1.140139
O      13.82832      9.62741      0.34750        -0.034274      0.863959     -0.234249
O      13.73032     10.16685     12.56898        -0.801552     -1.829417     -0.231642
O       2.08111     10.03203      4.41039         0.001051     -0.679280     -0.430165
O      13.48850      9.75738      4.38089         0.595734     -0.289571     -0.418337
O       1.90476      9.54139      8.50133        -0.094266      0.392901      0.114081
O      13.63976      9.49277      8.28587         0.714138      0.969071      1.512035
O       5.90137      2.13492      0.24455         0.034039     -0.818439      0.316811
O       5.71534      2.11904     12.74065         0.677998     -0.423408      1.589577
O       6.35083     13.58101     16.61717        -1.715766     -0.088928      0.428056
O       5.41755     13.61511     12.71292         1.248013      0.591136     -1.189186
O       5.68623      1.89426      4.30738         0.356650     -0.548027      1.012286
O       5.78388     13.62349      4.21985        -0.143046     -0.342146      0.919022
O       5.88875      2.06778      8.61452         0.084381     -0.168764      0.049249
O       5.67702     13.59770      8.48016         0.797034     -1.027508      0.216248
O       5.69273      5.57097      0.40540         0.788342      0.926570      0.921509
O       5.82362      5.80482     13.02582         0.467861     -0.391123     -0.324677
O       6.14851      5.73763      4.65796         0.606889      0.551678     -1.974269
O       5.60592      5.84893      8.51318         0.874246     -0.503432     -0.471397
O       5.51686      9.57077      0.34143         1.647292      1.066895      1.178575
O       5.90393      9.56038     12.57669        -0.852609      0.648598      0.750435
O       6.24494      9.64537      4.55176        -0.907556     -0.171238     -2.718326
O       5.85878      9.88338      8.64098         0.329007      0.177812     -0.262756
O       9.78595      1.85740      0.20341        -0.171958      0.153540      0.788521
O       9.82393      1.83653     12.78454        -0.020511     -0.180587     -0.041223
O       9.43340     13.67505      0.11568         0.316544     -0.799898      0.203120
O       9.63794     13.67020     12.70354         0.908818     -0.139061     -1.813060
O       9.75927      1.63699      4.52303        -0.236000      0.273220     -5.415323
O       9.81348     13.60119      4.38162         0.175307      0.014514      2.048643
O       9.39886      1.78037      8.67891         1.524841      1.294740      0.686311
O       9.41502     13.59675      8.75272         1.091079      0.376648      0.367095
O       9.84458      5.83674      0.34836         1.311553      0.051843     -0.053092
O       9.71733      5.57350     12.87035         0.507805      0.808390     -0.379910
O       9.79792      5.77347      4.38867        -0.284681     -0.209710      0.391529
O       9.93203      5.65963      8.73059        -1.192451     -0.069980      0.246393
O       9.62008      9.57490      0.25221         0.232881      0.288052      0.746182
O       9.77397      9.73221     12.74706         0.345485     -0.502195     -1.715386
O      10.15060      9.71731      4.65478        -1.471371     -0.167669     -2.373078
O       9.72843      9.54322      8.46467         0.700064      0.939294      1.323125
O       3.77137      1.95421      2.39977         1.799090      0.019613     -0.728247
O       3.81664      2.14482     14.81390         0.363555     -1.333768     -0.533166
O       3.93042     13.42495      2.03744         0.004152      0.343825      0.780399
O       3.97056     13.46873     14.93824        -2.044300      0.313295     -0.167801
O      15.60212      1.89210      2.26654        -0.871186     -0.116297     -0.092260
O       0.00138      1.78187     15.06083         0.892780     -0.214610     -0.679322
O       0.09093     13.48770      2.36913         0.495329      1.081528     -0.443280
O       0.06953     13.46062     14.60573        -1.866066      0.159426      0.526620
O       3.76907      1.83769      6.59023         0.835718     -0.587815     -0.075348
O       3.86027     13.43303      6.63172         0.084841      0.656936     -0.748047
O      15.54339      1.72800      6.33306         1.471934      0.114741      1.031871
O      15.43039     13.59466      6.12872         2.506791      0.320004      0.245583
O       3.88309      1.89475     10.76986        -0.856193      0.484272     -0.365945
O       3.79830     13.54151     10.66871        -1.931612      0.677199     -0.544725
O      15.51398      2.23146     10.73786         1.405338     -1.641107     -0.106291
O       0.04973     13.62821     10.80118        -0.143688      0.232433      0.129570
O       4.06673      6.18171      2.57167         0.306519     -2.007486     -0.358406
O       3.92341      5.97045     14.90443        -1.197121      0.172051     -0.359241
O       0.00998      5.60930      2.02272         0.436801      0.357717      0.777558
O       0.03509      5.87334     14.76229        -1.077255     -0.415223      0.174159
O       3.91652      5.77520      6.18577        -0.270569      0.375731      0.380373
O      15.46801      5.61422      6.41071         2.106481     -0.237253      0.475618
O       3.87889      5.85240     10.58423         0.292836      0.104952      0.504807
O       0.06885      5.87657     10.35085        -3.627677     -0.161465     -0.508075
O       4.08789      9.44993      2.81398        -0.787566      1.265917     -1.580890
O       3.91620      9.54327     15.00451        -1.310859      0.953664     -1.525962
O      15.44659      9.88975      2.64449         2.286090     -0.399102     -0.854778
O      15.53895      9.90728     14.64275         0.342280     -0.141785      0.377466
O       3.88737      9.53963      6.46293         1.625308      0.657905     -0.200673
O       0.22544      9.86474      6.13131        -3.579643     -0.976220      0.583999
O       3.98387      9.47259     10.34995        -1.062881      0.363493      1.426285
O       0.09086      9.44887     10.51692        -0.751577      1.469333     -0.044143
O       7.79726      1.66180      2.44348         1.126795      1.984842     -1.212432
O       7.83464      1.96587     14.70360        -1.313490     -0.270214      0.862645
O       7.81262     13.25576      2.42456        -0.381859      1.448391     -0.171013
O       7.68444     13.71814     14.35898         0.134873     -0.551462     -0.425093
O       7.63338      2.01703      6.26920         2.294133      0.003021      0.243831
O       7.87128     13.46587      6.44624        -1.486433     -0.099775     -0.091563
O       7.73873      1.86287     10.83680        -0.038323      0.380965     -0.490840
O       7.72619     13.70807     10.83045         0.567792     -0.957832     -0.435075
O       8.04151      5.60943      2.09601        -2.131781      0.171920      1.578183
O       7.81689      5.41360     15.25423        -0.526625      1.636675     -0.880364
O       7.92138      5.46854      6.67749        -0.021040      0.469818      0.020054
O       7.71087      5.67849     10.67347         2.187665      0.438501     -0.521001
O       7.86647      9.76611      2.61985         1.034116      0.909784     -0.262458
O       7.77197      9.80853     14.72896        -0.490262     -0.329696      0.237207
O       7.85357      9.58990      6.72638        -0.857001      0.436967     -0.494286
O       7.85353      9.90621     10.56080         0.430781     -0.335275     -0.045215
O      11.59215      1.93814      2.35510         1.322382     -1.285768      0.233497
O      11.79107      1.78837     14.71305        -1.310468      0.666660      0.965567
O      11.58841     13.51633      1.84203         2.089078      1.138742      0.703862
O      11.57995     13.44188     14.80244         2.219809      0.595449     -0.255543
O      11.59400      1.71655      6.61419         0.545771     -0.406594      0.046844
O      11.72876     13.77331      6.46392        -1.075946     -0.441722      0.755624
O      11.69399      2.06091     10.56251         0.316556     -0.661670      0.420158
O      11.83138     13.63992     10.69150        -1.269146     -0.182794     -0.598635
O      11.82906      5.82441      2.35097        -1.307731     -0.154298     -0.317877
O      11.78747      5.54115     14.85568         0.005792      0.546650     -0.327014
O      11.74729      5.74529      6.78504        -2.395692      0.203019     -1.693864
O      11.68056      5.83792     10.75345         0.167280      0.051836      0.391125
O      11.65901      9.71723      2.27451         1.445614     -0.773755      0.189972
O      11.79051      9.47699     14.81640        -1.295473      0.166538      0.079210
O      11.77763      9.39353      6.44350         0.217391      1.164145      1.170624
O      11.75963      9.43475     10.57361         0.086552      1.405244     -0.383639
O       2.05627      3.84254      2.45612        -0.538000      1.365968     -0.827226
O       2.00691      3.93664     14.61490        -0.889764      0.331817      0.705600
O       2.07398      0.11737      2.17533        -0.554898     -3.519999      0.552300
O       1.98691      0.00611     14.88381        -0.170104     -1.501211     -1.392836
O      13.44174      3.73495      2.29857         1.078025      0.603451     -0.780395
O      13.83644      3.64381     15.13070        -0.864398      3.349782     -0.870638
O      13.41367     15.55935      2.35300         0.708580      1.294884     -0.287967
O      13.42848     15.40499     14.58504         1.157034     -1.011356      0.131056
O       2.04395      3.70066      6.72648        -1.093003     -0.373049     -0.541391
O       2.05102     15.44716      6.60512        -1.069112     -0.122454     -1.074793
O      13.62029      3.85127      6.66810        -0.263899     -1.650593     -0.193418
O      13.58942      0.00629      6.67356         0.493870     -0.514007     -0.019299
O       1.81997      3.94698     10.60830         0.916985     -4.661637     -0.600522
O       1.86259      0.04748     10.90067         0.135205     -0.978630     -0.265495
O      13.66314      3.96895     10.33453        -0.192646      0.723758      1.093425
O      13.74152      0.08983     10.89376         0.146594      0.056418     -0.641829
O       1.96612      7.67399      2.59956        -0.988395      0.280191     -0.238916
O       1.66027      7.90447     15.16861         0.679604      0.540291     -1.838530
O      13.61764      7.68090      2.30586         0.729912      0.000199     -0.031437
O      13.68291      7.81892     14.90044         0.495569     -2.257890      0.072137
O       2.06817      7.74093      6.21463        -1.259903      3.335248     -0.188728
O      13.89794      7.69427      6.20837        -0.023028      1.148997     -0.250775
O       1.93300      7.56994     10.56839         0.640317      3.521416      0.614792
O      13.82845      7.84364     10.83252        -0.759982     -0.551959     -0.203659
O       1.99142     11.64711      2.29311         0.461882      0.965854     -0.283580
O       1.97455     11.58344     15.07074         0.040154      0.508209     -0.425724
O      13.49003     11.79858      2.44092         0.328719     -2.198109     -0.556864
O      13.46711     11.57113     15.04208         0.732264      3.574994     -0.138619
O       1.97695     11.62419      6.60690        -0.331469      1.699720      0.436631
O      13.71208     11.56762      6.53928        -0.585157      0.419323     -0.104599
O       1.93445     11.61021     10.60160        -0.017699      0.199937     -0.421735
O      13.92175     11.65846     10.63059        -0.519043     -0.553367     -1.606708
O       5.87434      3.75841      2.48888         0.619520      2.549665      0.034965
O       5.54551      3.92057     15.07090         1.032658     -1.012739     -0.945100
O       5.90479      0.05478      2.18354        -0.376956     -1.391376      0.348971
O       5.61049      0.04172     14.82620         0.859892      0.521642     -0.755377
O       5.62038      3.86107      6.45758         0.648344     -0.319574      0.431173
O       5.88344      0.01129      6.60284        -0.589328     -0.736665     -0.862947
O       5.82883      4.00085     10.71711        -0.364979     -1.629662     -0.416368
O       5.80211     15.55654     10.57142        -0.593007      0.026774      0.695703
O       6.40209      7.89004      2.16487        -0.533392     -4.116458      0.432780
O       5.85335      7.81243     14.62286         1.062348     -0.110552      0.962800
O       5.93777      7.71925      6.64392         0.660268     -0.726847     -0.238000
O       6.09063      7.76015     10.70939        -0.429575      0.048852     -0.188654
O       5.94190     11.58046      2.23584        -0.961287     -0.300912      0.575850
O       5.81837     11.63627     14.68742        -0.110724     -0.190261      0.433932
O       5.92360     11.59658      6.44332        -0.309329      0.970616     -0.236917
O       5.78986     11.78905     10.72753         0.056178     -0.699164     -0.671696
O       9.99172      3.75453      2.41964        -1.200190      0.962123     -0.162827
O       9.66211      3.79545     14.73314         1.206940     -0.759827      1.030916
O       9.96897     15.42550      2.20836        -0.996108      2.383822      0.497243
O       9.83829     15.45590     14.97310        -0.313704      1.279826     -0.527503
O       9.92419      3.63532      6.65608        -1.091728      1.670757     -0.689994
O       9.36967     15.56639      6.62053         1.276762     -2.116156      0.305212
O       9.72078      3.79699     10.95508        -0.057687      0.872834     -1.296118
O       9.80808      0.06009     10.64933         0.137629     -2.361774      0.126363
O       9.75870      7.83600      2.36877         0.313632     -1.819264      0.582425
O       9.59704      7.67988     14.61099         0.391397     -0.738907      1.244316
O       9.57929      7.72342      6.49575         0.430665     -2.484243      0.026351
O       9.69423      7.79430     10.63382         0.028794     -1.572719      0.460671
O      10.08108     11.72229      2.28656        -1.246955     -1.835574      0.484323
O       9.98688     11.56557     14.60299        -1.210827      1.193198      0.427299
O       9.87391     11.59667      6.46238         0.422541      1.507179      0.600708
O       9.91122     11.45395     10.74235        -0.148440      3.001759     -0.727389
