  # total energy = -7846.17963478 
CRSYTAL
PRIMVEC
    15.6080000000000005    0.0000000000000000    0.0000000000000000
     0.0000000000000000   15.6080000000000005    0.0000000000000000
     0.0000000000000000    0.0000000000000000   16.6239999999999988
PRESSURE
1.47 0.348455 -2.8492 -0.04176 -0.00791 0.072439
PRIMCOORD
320 1
Pb       3.99457      4.12512      4.23798        -0.729760     -1.220741     -0.640939
Pb       3.92056      4.07907      0.15276         0.073504     -0.483583      0.224950
Pb       4.01875      0.12948      4.41774         0.590693      0.007817     -0.270550
Pb       3.75447     15.43243      0.04171        -0.152341      1.238545     -0.295375
Pb       0.15355      4.02789      4.27949         0.509890     -1.249121     -0.324886
Pb       0.03833      3.80764      0.11306         0.512792     -0.228390     -0.092855
Pb      15.45725     15.52687      4.48216         0.306469     -0.088585      0.034172
Pb       0.31624     15.44660     16.61280        -0.900533      0.706440      0.165430
Pb       3.88500      3.65986      8.28923         0.569818      1.687746      0.180992
Pb       3.80787      0.01418      8.38255         0.941771     -0.865496     -0.204630
Pb      15.40127      4.06228      8.14793        -0.363915     -0.505802      0.628797
Pb      15.29698      0.09993      8.05322         0.320415     -0.263205     -0.346226
Pb       4.06106      3.89986     12.38843        -0.507195     -0.244999      0.104441
Pb       3.81334      0.04334     12.42378        -0.255840     -0.372218     -0.263078
Pb       0.04040      3.66388     12.66091        -0.169808     -0.438197     -0.211760
Pb      15.60465      0.01651     12.28437        -0.199449     -0.174584     -0.642359
Pb       3.70625      7.93514      4.25421        -0.127287      0.155546      0.214804
Pb       3.59922      8.07202      0.12906         1.951499     -1.446252      0.284882
Pb      15.54500      7.89286      4.10917         0.709248      0.607685      0.766114
Pb       0.13391      7.94957      0.13925        -1.083862     -0.425450     -0.069671
Pb       3.83358      7.92196      8.65504        -0.763895     -1.167927     -0.289906
Pb       0.02403      7.55361      8.47641         0.106503      0.164957      1.122537
Pb       3.83204      7.70143     12.73905        -0.235537      0.270282      0.170739
Pb       0.22389      7.43643     12.78262        -0.227866      1.075221      0.280723
Pb       3.82474     11.85290      4.40374        -0.727047     -0.125435     -0.272555
Pb       3.66426     11.81517      0.01252         0.026816     -0.521715      1.144597
Pb      15.51554     11.61679      4.66895         0.815118      0.720210     -1.050793
Pb       0.04591     11.85523     16.59553        -0.713106     -0.211592     -0.143051
Pb       3.83568     11.68239      8.64598         0.437916      0.426437      0.449499
Pb      15.47351     11.23094      8.21169         0.473168      1.304628      1.270860
Pb       3.64514     11.83910     12.54432         0.881122      0.373638     -0.108906
Pb      15.42214     11.75412     12.39456        -0.025756      0.678502      0.646287
Pb       7.72149      4.15574      4.16985         0.273384     -0.718387      0.275099
Pb       7.83876      3.65950     16.60318        -0.069452      0.662900      0.030934
Pb       7.79973      0.10104      4.03130        -1.063322     -0.342497      0.579109
Pb       7.69552      0.16721      0.04447         0.265646      0.253812      0.088435
Pb       7.82635      3.94658      8.58946         0.666469      1.079232     -0.433944
Pb       7.76493      0.18394      8.30376         0.016324     -1.908313      0.722839
Pb       7.97741      3.80362     12.61832        -0.045061      0.264038      0.349016
Pb       7.68413     15.40268     12.72730         0.750704     -0.026446     -0.392929
Pb       7.72691      7.71364      3.97627         0.524615      0.238283     -0.610402
Pb       7.80485      7.94184     16.44118        -0.798015     -0.782604      1.061468
Pb       7.90307      7.76772      8.32940        -0.166431     -0.328432     -0.630606
Pb       7.59325      7.69354     12.77480         0.142064      0.467175     -1.283439
Pb       7.59458     11.91976      4.24072        -0.047766      0.581968      0.362495
Pb       7.62303     11.39592     16.60882        -0.281454      0.046011      0.246328
Pb       7.56047     11.85264      8.50912        -0.484365     -0.197497     -0.187421
Pb       8.10712     11.95317     12.79630        -1.601191     -0.101126     -1.389239
Pb      12.00579      3.95004      4.03997        -0.909470     -0.627685     -0.501098
Pb      12.00362      3.79686      0.04174        -0.636120     -0.427131      0.594011
Pb      11.89045     15.41679      4.12480        -0.729670      0.504791      0.357605
Pb      12.17592     15.52929      0.31286        -0.687045      0.403514     -0.559969
Pb      11.61266      4.05354      8.40595        -0.141933      0.229070      0.730727
Pb      11.45436      0.22476      8.12063         0.096337     -0.564443      0.431034
Pb      11.79575      3.79418     12.73007        -0.436802      0.479797     -0.999863
Pb      11.70202     15.51316     12.12689        -0.584034     -0.967844      0.830835
Pb      11.58179      7.62626      4.17742        -0.508682      0.889264     -0.276926
Pb      11.99751      7.72400     16.57431        -0.448305      0.277949      0.550367
Pb      11.67225      7.72762      8.45120         0.214033     -0.406369      1.063460
Pb      11.65305      7.70735     12.48566         0.205218      0.266788     -0.519758
Pb      11.60789     11.64573      4.32512        -0.211480      0.300219      0.014487
Pb      11.76666     11.62562      0.12493         0.446021      0.059832     -0.819644
Pb      11.64108     11.18163      8.17694        -0.575042      0.622712      0.501719
Pb      11.38960     11.50010     12.16485         1.479233      0.901489      1.394291
Ti       1.98801      1.94084      2.40516         0.910993      0.242165     -0.491658
Ti       1.98887      1.92648     14.66440        -0.164626      0.695027      1.017110
Ti       1.92864     13.65726      2.36502        -0.856367     -2.038567      2.340140
Ti       1.77056     13.67697     14.44837        -0.094693     -0.172658     -0.790062
Ti      13.87811      1.96474      2.02957        -2.284406      0.476212      1.004488
Ti      13.58624      1.88581     14.44712         2.946351     -1.378260     -0.776377
Ti      13.85348     13.56315      2.04766        -0.539946     -0.646264     -0.014391
Ti      13.54181     13.63579     14.35974        -0.733948     -0.862329      0.224315
Ti       2.04495      2.02638      6.27662        -0.857409     -0.601904     -2.119187
Ti       1.94991     13.76748      6.49915        -0.806611     -0.770094     -0.704707
Ti      13.47168      1.98288      6.07156         1.871976      0.016867     -0.540663
Ti      13.36844     13.51141      6.41629         0.585882      0.695063     -0.052438
Ti       1.94449      1.99372     10.08056        -0.967754      0.391757      1.825731
Ti       1.82990     13.65574     10.33525        -0.450210      0.282393      0.453252
Ti      13.59735      1.88342     10.24650         0.241541      2.260342      1.147620
Ti      13.47364     13.57755     10.06796         0.981135      0.123443      1.554151
Ti       1.88512      5.96742      2.41790         3.022857      0.031754     -2.726839
Ti       1.92220      5.82483     14.99700        -0.095254     -0.968857     -1.297440
Ti      13.75744      5.98549      2.35159         1.229255     -1.874862     -1.967983
Ti      13.63613      5.83242     14.70903         1.820491      0.619516      0.962765
Ti       1.93716      5.85643      6.49698         1.854352      1.720740      0.294613
Ti      13.76297      5.73690      6.17964        -1.761237      0.984432      1.383622
Ti       2.04213      5.83068     10.65125        -0.349655      0.157259     -4.503212
Ti      13.72049      5.81031     10.79431        -0.679345     -0.495879     -3.702609
Ti       1.81450      9.93821      2.18159         2.414397      0.660570      1.389619
Ti       1.89568      9.81746     14.84233        -0.587097      0.140483     -3.771237
Ti      13.55350      9.72337      2.19770         0.226433      0.600250     -0.024581
Ti      13.62669      9.76222     14.64578        -0.285524      0.680190     -0.983294
Ti       1.98725      9.84044      6.50068        -0.402015     -0.540968     -0.365396
Ti      13.65436      9.53457      6.36534        -0.351302     -0.624723     -1.887433
Ti       1.94287      9.82694     10.86040        -1.974633     -2.426693     -0.054236
Ti      13.72140      9.74852     10.67138        -1.976278     -1.797404      0.141421
Ti       5.80819      1.94653      2.08741        -0.741701      0.358499     -0.374122
Ti       5.80413      1.70140     14.63176        -0.096861      1.971276     -0.063179
Ti       5.62457     13.74969      2.20066         1.291921     -0.140889      1.593226
Ti       5.74331     13.41402     14.81276        -0.911981      1.414129     -1.325412
Ti       5.96945      2.04673      6.41000        -2.157656     -1.374084     -2.396651
Ti       5.64186     13.58252      6.46580         1.558830      1.812835     -0.366562
Ti       5.81781      1.90800     10.37834         0.437427     -0.547126     -0.154806
Ti       5.85977     13.72720     10.54784        -0.608367     -2.031011      0.120802
Ti       5.68230      5.97672      1.99691         0.146311     -0.247508      0.834814
Ti       5.78133      5.70982     14.48266         0.119078     -0.768133      0.934423
Ti       5.78989      5.89650      6.09717         1.329748      0.260625      0.634296
Ti       5.95572      5.76910     10.56076        -0.338229      0.756477     -1.630654
Ti       5.77043      9.82392      2.32468        -1.050864     -0.628491     -2.102427
Ti       5.69880      9.64627     14.50450        -0.115944     -0.864674     -0.495024
Ti       5.78706      9.67242      6.15313         0.800775      0.499243      0.385752
Ti       5.62849      9.55548     10.52235         2.403684      1.358206      0.240535
Ti       9.80560      2.01674      2.32759         1.170655      0.398308      0.102237
Ti       9.86664      1.96331     14.69391        -0.859887      0.139914      0.779138
Ti       9.73917     13.68247      2.09019        -0.922088      0.033627     -0.440176
Ti       9.67265     13.71589     14.82031         2.944621      0.908884     -1.355757
Ti       9.73528      2.03909      6.30099        -0.477763      1.079182     -0.964794
Ti       9.60539     13.59005      6.24157        -0.179533     -0.173115      1.046594
Ti       9.74406      1.80352     10.60296        -0.216291      0.420987      0.734317
Ti       9.75123     13.43704     10.17547        -2.680073      1.556424      0.498603
Ti       9.59067      5.69152      1.99434        -0.781269      2.662716     -1.109363
Ti       9.78337      5.98781     14.52956        -0.657341     -2.737972     -0.723914
Ti       9.91732      5.82714      6.12555        -1.859493     -1.249731      1.020709
Ti       9.79168      5.78552     10.57966         0.389128      0.005582     -0.010854
Ti       9.71630      9.85277      2.06781        -0.258874     -2.149865      2.154358
Ti       9.73200      9.64408     14.45527         0.719439      0.525187     -0.211079
Ti       9.75303      9.50104      6.01720        -1.435513      1.700657      1.509466
Ti       9.54458      9.59790     10.53285        -0.701425     -1.134214     -0.566900
O       1.78694      1.52968      0.09654         0.646001      0.755792      1.271075
O       2.18899      2.20656     12.83621        -0.594896     -0.680914      0.320642
O       1.82312     13.45271     16.43583         0.502405      0.113113      0.913883
O       1.77059     13.62597     12.41574         1.203711      0.567660      0.979716
O      13.70890      1.96185      0.17145        -0.863869      0.356314     -1.578257
O      13.74564      2.05940     12.50273        -0.582394     -0.925019      1.935495
O      13.63255     13.64094      0.22683         0.424162     -0.478578      0.681904
O      13.45460     13.37783     12.61890         0.475425      0.864007     -1.972447
O       2.12345      1.98753      4.34035        -0.740603     -0.320157     -1.285252
O       1.93850     13.25108      4.19123        -0.027313      1.450512      0.165564
O      13.52907      1.86838      4.16315         0.710518     -0.158091      0.204274
O      13.60441     13.70365      4.61517        -0.076940      0.233241     -2.039404
O       2.11861      1.97419      8.20699        -1.041880      0.090115      2.880824
O       1.90006     13.80295      8.34036         0.241781     -0.128557      1.523567
O      13.63384      2.17203      8.28601        -0.193715     -0.627424      1.165070
O      13.57562     13.97025      8.32241         0.402001     -0.290009      0.020137
O       1.78493      6.08455      0.07724         0.045961     -0.377331      1.659798
O       2.10320      5.85404     12.31467        -0.940226     -0.248844      4.380464
O      13.81005      6.27459      0.08717        -0.445946     -1.950807     -0.778774
O      13.77858      5.73501     12.50713        -0.212824      0.416757      2.031726
O       2.15327      6.07627      4.15949        -0.224002     -1.036680      1.220795
O      14.02650      5.65607      4.26175        -0.675714      1.695597     -0.372200
O       2.07505      5.97012      8.39115        -0.295549     -0.546231     -1.565627
O      13.56294      5.66748      8.23840         1.096849     -0.439743     -1.246224
O       1.98815      9.70859      0.01320        -0.879881      1.143799      0.151468
O       1.82831      9.41710     12.66504         0.300773      1.248425     -1.119313
O      13.30654      9.74993      0.18866         0.955798     -0.859486     -1.723749
O      13.55247      9.69149     12.51282         0.602646      0.697227      0.712640
O       1.82362      9.99958      4.08444        -0.097193     -0.818324     -0.416882
O      13.75259      9.71724      4.19315         0.339805     -0.264072     -0.845461
O       1.96361      9.70678      8.37675         0.101361      0.431916     -0.968521
O      13.79007      9.55012      8.13976        -0.145989      0.664941      1.818198
O       5.77595      1.68984      0.15233        -0.034453      0.239473      1.216014
O       6.02751      1.96454     12.69155        -0.835498     -0.683745      0.210835
O       5.53428     13.47269      0.18984         0.856334      0.503993     -0.931107
O       5.84085     13.60248     12.65276         0.071413      0.200549     -0.203171
O       5.90474      1.75751      4.48730         0.194012      0.687606      0.283054
O       5.97873     13.61590      4.21547        -1.281871     -0.134371     -0.147359
O       5.77199      1.55640      8.45277         0.258563      1.788615      1.065693
O       5.77264     13.70626      8.35003         0.857249     -0.841038      1.062182
O       5.69378      5.99046      0.25677         1.027485     -0.381636     -2.060009
O       5.90881      5.47820     12.66474        -0.883064      0.698847     -0.787037
O       5.57834      5.69144      4.19955         1.818014      1.034259      1.650850
O       6.07674      5.71874      8.61993         0.022183      0.834767      1.207676
O       6.12051      9.51621      0.19103        -0.294418      0.999857     -0.206028
O       5.67268      9.68242     12.69064         0.129096      0.457818      0.248522
O       5.38161      9.76734      4.30803         2.134324      0.011552     -0.495380
O       5.62355      9.41270      8.58193         0.137342      1.081969      0.805608
O       9.93028      2.13798     16.59082         0.053935      0.387301      0.017428
O       9.57842      1.84593     12.61969         0.656618     -0.186153     -0.782966
O       9.90788     13.44649      0.18849        -0.688493      0.883220      1.087897
O       9.72312     13.69972     12.63783        -0.551020     -0.253725      1.299886
O       9.66957      2.07425      4.37592        -0.321450     -0.816018     -0.769469
O       9.96322     13.49559      4.49586         0.051194      0.890883     -2.271716
O      10.01813      2.19636      8.30031        -0.480762     -1.120550     -0.069134
O       9.49671     13.53268      8.38174         0.615091     -0.987751      0.100850
O       9.55691      5.52629      0.12042         0.725019      0.737771      0.934370
O       9.94236      6.03117     12.61569         0.558763      0.289960      0.532132
O       9.88780      5.72380      4.39304        -0.762905      0.997846     -1.869651
O       9.62437      5.83361      8.70998         0.020359     -0.702872     -1.233634
O       9.52174      9.91140      0.33774         0.479706     -0.303732     -1.345264
O       9.81920      9.44220     12.61169        -0.164219      0.316398      0.646610
O       9.68666      9.36796      4.27635         0.457594      0.436164     -0.401772
O       9.87274      9.60138      8.74573        -0.432866      0.562876     -1.210214
O       3.89084      1.58334      2.46523        -0.707546      0.764393     -1.273813
O       3.90614      1.57221     14.85522         0.476649      0.746850     -0.614253
O       3.77894     13.88509      2.19555         2.300024     -0.116521     -0.271494
O       3.76368     13.74940     14.50237         1.777492     -0.562826      0.492966
O      15.58133      2.10015      2.19767         3.220762      0.639919      0.859077
O      15.48417      2.16124     14.61973         0.919902     -0.347445     -0.143974
O       0.03265     13.13619      2.45545        -1.973179      0.884248     -1.532295
O      15.55865     13.52722     14.58536        -0.573169      0.258476     -0.080264
O       3.91680      2.17082      6.48038         1.168302     -0.451547     -0.147532
O       3.81407     13.34858      6.33805         1.137859      0.458359     -0.075570
O       0.14748      1.97407      6.30130        -0.272413     -1.393900      0.343711
O       0.08519     13.96532      6.41573        -0.894617      0.131095     -0.347645
O       3.89959      1.85520     10.40061         0.305114      0.090195      0.248628
O       3.97030     13.77253     10.29223        -0.554054      0.114605      0.662726
O       0.05031      1.91760     10.72956         1.161614     -0.083069     -1.415125
O      15.60375     13.45586     10.63116        -0.306014      0.865811     -1.000420
O       3.87071      5.67786      2.05064        -1.647542      0.380826      0.379131
O       3.92124      5.60533     14.66464        -0.628439      0.281090     -0.304661
O       0.19498      5.68903      2.50869        -2.363258      0.144338     -0.987291
O       0.04423      5.64900     14.58238         0.313544      0.272843     -0.491638
O       3.99103      6.00269      6.22939        -0.843038     -0.751201      0.779284
O       0.08128      5.86691      6.48388        -0.777458     -0.076009     -0.269266
O       3.91172      5.88939     10.65447         1.502619     -0.071046     -0.679836
O       0.07630      5.97617     10.37453        -1.164298     -0.665317     -0.010863
O       3.85299      9.62976      1.67095         1.344358      1.209047      1.857793
O       3.79174      9.59263     14.69758         1.039141      0.306221      0.076739
O       0.09618     10.10569      1.85511        -2.014808     -0.336210      0.095984
O       0.06066      9.79090     14.73127        -2.148461     -0.169601      0.416698
O       3.74906      9.91953      6.10720         1.176119     -0.401931      1.207112
O       0.02977      9.93566      6.31996        -0.484244     -1.180060     -0.476253
O       3.75063      9.84095     10.78126         1.630885     -1.083542     -0.603931
O      15.49372     10.01958     10.61718         2.304481      0.267588     -0.719104
O       7.80821      2.07275      2.04590         0.128871     -0.238675      0.226034
O       7.80593      1.97035     15.09702        -0.120978     -0.752390     -1.232207
O       7.76093     13.75248      2.34847         2.932693     -0.424415     -0.838001
O       7.83267     13.61212     14.64326        -1.556662      0.102550      0.793268
O       7.66450      1.49422      6.54880         2.926890      1.947819     -0.778440
O       7.80140     13.71741      6.15432         0.386825     -0.219851      0.428324
O       7.97830      1.94476     10.32886        -2.681629      0.295110     -0.389075
O       7.88279     13.54776     10.44357        -2.583343     -0.062109      0.332291
O       7.67150      5.71510      2.40997         1.041709      0.092705     -0.338000
O       7.91792      5.90343     14.20490        -0.474627      0.030172      1.838779
O       7.85338      5.89629      6.31102        -0.946110      0.635912     -0.549008
O       7.88395      5.75136     10.92202        -1.499108      0.287084     -0.819994
O       7.72798      9.54105      2.27730         0.211565      0.816371      0.731526
O       7.78376      9.37050     14.64243         0.121069      0.957388     -0.069124
O       7.80057      9.42026      6.27388         0.062779      0.217023      0.045814
O       7.65274      9.38895     10.62465         0.573827      0.763080     -0.586838
O      11.70047      2.04211      2.17716         0.162075     -0.220324     -0.062686
O      11.80731      2.18819     14.52741        -1.920861     -0.739043      0.399062
O      11.87611     13.86957      2.46204        -0.154114     -0.252366     -1.173736
O      11.70544     13.67357     14.65849        -2.227865     -0.167189      0.954160
O      11.72486      2.29858      6.09812        -0.963107     -0.445923      1.048321
O      11.58412     13.54742      6.61513         0.508265     -0.077484     -0.136205
O      11.66662      1.98525     10.64772         1.507929     -1.104739     -0.609167
O      11.51788     13.49542     10.48689         2.741288      0.287247     -0.125438
O      12.01752      6.19718      2.47544        -1.290094     -0.911396     -0.812878
O      11.82708      6.00098     14.57180        -0.717414     -0.073230      0.323838
O      11.83403      5.59880      5.99157         0.651916     -0.536210      1.144933
O      11.82683      5.83385     10.42689         0.645321     -0.325010      0.510848
O      11.69744      9.42473      2.27212        -0.421023      0.409650      0.047518
O      11.68078      9.76682     14.57685        -0.186520     -0.492283      0.622666
O      11.80425      9.72565      6.35366        -1.575707      0.292710     -0.252133
O      11.81824     10.01339     10.48790        -0.958329     -0.168309     -0.390758
O       2.01331      3.78847      1.97023         0.221047     -0.521116      0.497437
O       1.91421      3.85173     15.29464         0.714862     -1.072002     -1.151077
O       1.75969     15.40943      2.46681        -0.897938      2.512835     -0.731211
O       1.78352     15.59610     14.76611        -0.101823     -0.597342     -1.619571
O      13.67943      4.01687      2.07035        -0.302457      0.573774     -0.013538
O      13.55541      3.96256     14.68222         0.109788     -0.239443      0.142468
O      14.17796      0.13749      1.92901        -1.802890     -3.469746      1.095019
O      13.59113     15.49876     14.54444         0.221724      2.748803      0.273964
O       2.00726      3.98255      6.09510        -0.130292      0.761569      0.970643
O       2.36699      0.02921      6.21217        -1.038312     -0.033843      0.414961
O      14.15176      3.80865      5.89690        -1.604329      0.618731      1.830826
O      13.60255      0.08663      6.23960        -0.197527      0.635989      0.893791
O       2.21831      3.87236     10.44670        -0.971650     -1.339960     -0.648935
O       2.01801     15.57131     10.53000        -0.476893      1.479005     -0.029447
O      13.68752      3.74871     10.67742         0.263459      0.753373     -1.296724
O      13.78632     15.49426     10.50780        -0.738406      1.379135      0.300710
O       1.81533      7.89162      1.95656        -0.027949     -0.445122      1.314340
O       1.99188      7.60805     14.47572        -0.467230      1.083540      0.426826
O      14.23182      7.78326      1.98498        -0.565222      1.344873      1.642857
O      13.88320      7.76836     14.54593        -0.692999      1.240490     -0.033421
O       1.81933      7.76662      6.07005         0.518634      1.068934      0.855234
O      13.38909      7.69396      6.20763         1.758941     -0.667994     -0.300447
O       1.80013      7.98118     10.38843         0.568262     -0.526368      0.030348
O      13.57167      7.90209     10.31048         0.669421     -0.728463      0.630965
O       2.38426     11.75939      2.09462        -0.432710     -0.909051     -1.307457
O       1.78134     11.63109     14.19903         1.235084     -0.000017      1.369778
O      13.35020     11.55907      1.93504         0.460903      1.649369      1.117904
O      13.49227     11.72921     14.54601         1.016171     -2.582934      1.459382
O       1.86686     11.85164      6.35527        -0.865873     -2.043522      0.435182
O      13.60241     11.68711      6.36061         0.331658     -0.165052      0.613113
O       2.22258     11.78327     10.50524        -0.813174     -0.404423     -0.055408
O      13.66375     11.83049     10.08398        -0.291621     -1.311554      0.104324
O       5.56269      3.77748      2.26878         0.739239     -0.429654     -0.136117
O       5.94301      3.86079     14.78464        -0.030648     -0.440184      0.472061
O       5.89840      0.03652      2.47565         0.527796     -1.092097     -1.054123
O       6.00679     15.48375     14.81864         0.091257     -0.560204     -0.280603
O       5.91851      3.88011      6.36813         0.298481      0.815588      0.342136
O       5.73163     15.41252      6.44009        -0.924408      0.997497     -0.355112
O       5.82213      3.83457     10.42451        -0.012047     -1.144340      0.342643
O       5.80670     15.58204     10.60659         0.765437      1.048300      0.535207
O       5.55488      7.78817      2.42122         1.077516      0.306568      0.324720
O       5.81535      7.69949     14.53361        -0.219906     -0.481105      0.041126
O       5.75641      7.87836      6.38838        -0.311193     -0.942222     -0.489273
O       5.64016      7.72626     10.92984         0.169569     -0.424697     -0.944505
O       5.81588     11.73429      2.37156        -0.115421     -0.943566     -0.684660
O       5.67951     11.54005     14.80681         0.806752      1.530675      0.096096
O       6.11521     11.74331      6.39384        -0.269577     -2.461755     -0.006237
O       5.52713     11.71297     10.36259         1.330182     -0.507210     -0.032703
O       9.91160      3.97394      2.41603        -0.029593     -0.459760     -0.108279
O       9.75738      4.02343     14.39364         0.229631     -1.303586      0.334231
O       9.84629      0.20461      2.16861        -0.544765     -2.823891      0.199380
O       9.71107      0.09194     14.70191        -0.124638     -1.510126      0.439381
O       9.55460      3.93167      6.23564         0.016124     -1.304004      1.276100
O       9.89103     15.58550      6.54546        -0.130711      0.763387     -0.512938
O       9.82192      3.91211     10.61993        -0.071743     -1.071403      0.171733
O       9.62528     15.47589     10.39316         1.538601      0.977678      0.035453
O       9.73028      7.61363      2.36993        -0.437806     -0.277412     -0.477291
O       9.88222      7.78150     14.94573        -0.213349      0.852101      0.063242
O      10.05476      7.64842      6.63699        -0.480159      0.756546     -0.632044
O       9.98266      7.69063     10.47098        -0.016224      1.350665      0.718675
O       9.94292     11.73744      2.41612        -0.208056     -0.170848     -0.376627
O       9.33394     11.52442     14.66362         1.487739      0.083224      0.578262
O       9.70051     11.44575      6.12646         0.484927      0.006325      0.667776
O       9.43162     11.52021     10.89340         1.009001      0.521957     -1.380128
