  # total energy = -7836.84966976 
CRSYTAL
PRIMVEC
    15.6080000000000005    0.0000000000000000    0.0000000000000000
     0.0000000000000000   15.6080000000000005    0.0000000000000000
     0.0000000000000000    0.0000000000000000   16.6239999999999988
PRESSURE
3.81814 4.41574 2.04611 -0.05388 0.250556 0.332708
PRIMCOORD
320 1
Pb       4.31335      4.08240      4.30401        -2.306148     -1.618426     -1.501935
Pb       4.15745      3.66084      0.03421        -1.576571      1.544924      0.104657
Pb       4.32557      0.10249      4.22661        -1.671551     -0.407137     -0.749743
Pb       3.95405      0.19686      0.49002        -1.005730     -1.312473     -0.411773
Pb       0.47480      3.95992      4.21766        -1.595911      0.892879      0.939226
Pb       0.07802      3.90128      0.29043        -0.319382      0.004085     -0.882789
Pb      15.41109      0.07279      4.19551        -0.585256     -0.943714      0.160823
Pb       0.06021      0.09175      0.08052         0.399910     -1.076251     -0.329692
Pb       4.03491      3.70012      8.19288        -1.010967     -0.004689      0.929729
Pb       3.96561     15.60674      8.87945        -1.458575      0.846144     -1.734421
Pb      15.51174      3.72491      8.27744        -0.019300      0.649182     -0.495819
Pb      15.13161     15.47151      8.02635         0.440009     -0.013168      0.485418
Pb       3.64066      3.83793     12.26269         1.463939      0.093429     -0.581670
Pb       3.78496      0.48145     12.40614        -1.367930     -1.275990     -0.153785
Pb       0.28390      3.89099     12.49915        -0.375002     -0.837991      0.051794
Pb      15.15281     15.30860     11.87917         1.593082      0.281336      0.830121
Pb       3.95523      8.30236      4.18403        -1.839971     -1.767574     -0.097454
Pb       3.99223      7.99602      0.07001         0.001011     -0.838174     -0.445821
Pb       0.22839      7.62845      4.16710        -0.402361      0.298702      0.674314
Pb       0.16824      8.28488     16.50734        -1.420436     -2.876964      0.185360
Pb       4.22296      7.90472      8.88054        -1.066771     -0.031384     -1.086602
Pb       0.02711      7.81026      8.67738         0.534327     -0.463555     -1.269161
Pb       3.77842      7.42209     12.89826         0.422389      1.274620     -1.351780
Pb       0.00738      7.51041     12.60155         0.710818      0.698465     -0.331354
Pb       3.61463     12.12519      4.81955         0.716244     -1.339136     -1.538496
Pb       3.32696     11.96315      0.43784         2.661214     -0.733429     -0.883187
Pb       0.25906     11.62198      4.19235        -1.874629     -0.253548      1.462625
Pb      15.37233     11.66515     16.31764         1.090971      1.285452      0.879839
Pb       3.70002     11.50210      8.44090        -0.536907      0.004345     -0.188913
Pb      15.37420     11.57645      8.21140         0.408200     -0.049934     -0.328532
Pb       4.48805     11.86089     12.57438        -3.196874      0.166726     -0.199361
Pb      15.15570     11.84357     12.49233         1.734094      0.134249     -0.631102
Pb       8.18224      3.97863      3.56706        -3.189465      0.574209      2.380067
Pb       7.80177      3.98160     16.42067        -0.015616     -0.326856     -0.038529
Pb       8.49089     15.58952      4.13876        -3.119866     -0.836397     -0.876129
Pb       7.60020     15.23507     16.56688        -0.027183      1.724251      0.440550
Pb       7.46611      4.04910      7.95317        -0.071361      0.701070      0.666047
Pb       7.64859      0.04657      8.41695         0.878452     -0.619666     -0.831648
Pb       7.94027      3.91079     12.44970        -0.361866      0.313470     -0.480851
Pb       8.23146      0.31449     12.86039        -1.253009     -1.219915     -1.365665
Pb       7.48293      7.88590      4.06033         1.468282     -0.720198      0.614485
Pb       7.58829      7.91969      0.29451        -1.210865     -0.675657     -1.346883
Pb       7.69581      8.10989      8.30835         0.009231     -1.651633     -0.036403
Pb       7.65055      8.04997     12.60089         0.568619     -0.940810     -0.234746
Pb       7.65354     11.86611      4.03786        -0.033161     -0.227833     -0.470137
Pb       8.03081     12.14694     16.62110        -2.076611     -1.804133      0.499758
Pb       7.59093     11.37331      7.97665         0.349145      1.038348      1.115171
Pb       7.97559     11.40883     12.84290         0.440768      0.848171     -0.793397
Pb      11.25651      3.68901      3.88221         3.292959      0.680130      1.588550
Pb      11.89297      3.70512     16.54322        -0.334058      0.587718     -0.650992
Pb      11.70960     15.24959      4.38369         1.099520      1.087031     -0.366916
Pb      12.21613     15.59064      0.39187        -0.981589      0.851559     -0.599567
Pb      11.55083      4.09067      8.66225         0.613262      0.240043     -0.626441
Pb      11.59561      0.38987      8.12673         0.531119     -2.135897      0.234938
Pb      11.53112      3.32231     12.47346         0.214359      1.603600      0.098680
Pb      11.45998     15.12685     12.25391         1.040777      2.186103     -0.564887
Pb      11.06405      7.49910      4.23066         1.503002      0.497724      0.516472
Pb      12.04947      7.92269      0.02648         0.284988     -0.537855     -0.557314
Pb      12.04028      7.51362      8.98561        -0.796754     -0.438335     -2.131282
Pb      11.53357      7.65064     12.75177         0.133416      0.067801     -0.009696
Pb      11.30063     11.42540      3.90417         0.609013     -0.451442      0.568603
Pb      11.94841     11.40033     16.19495        -1.026739      0.858816      1.421321
Pb      11.11819     11.67943      8.28877         0.951416     -1.164355     -1.030499
Pb      11.69797     11.54135     12.33383        -0.191024     -0.312624      0.024396
Ti       1.81988      1.91409      2.43147         2.747785     -0.576242     -1.176466
Ti       1.97640      1.88871     14.78564        -0.239962      0.838287     -1.390389
Ti       1.84132     13.64551      2.55937         0.209424      1.407092     -2.876905
Ti       1.75668     13.68331     14.55959         0.367472      0.841497     -2.678626
Ti      13.63350      1.97285      2.24788        -0.689333     -0.730426     -0.100082
Ti      13.72981      1.82938     14.33565        -0.378819      1.361127      2.562467
Ti      13.55641     13.30800      2.12089         2.310831      3.795255     -0.050155
Ti      13.43271     13.73882     14.68997         2.214319      0.918672     -0.299947
Ti       1.95878      1.91972      6.12459         1.066878      0.539881      2.750568
Ti       1.72547     13.79072      6.53530         0.368176      0.339198      1.516371
Ti      13.53546      2.15516      6.15047         0.207825     -0.956647     -0.022606
Ti      13.42379     13.36396      6.11187        -0.023411     -0.260358      3.759171
Ti       1.71966      1.80856     10.26736         0.803855     -0.417142      0.147599
Ti       2.02178     13.47103     10.38231        -1.609186      1.110094      0.877556
Ti      13.45009      1.83211     10.36859        -0.010704      0.293956      0.981167
Ti      13.35392     13.37952     10.04664         3.624940      0.621461     -0.958586
Ti       2.10726      5.90685      2.26835        -0.413573     -0.045548     -0.589742
Ti       1.99811      5.70655     14.86482         0.548741      1.084729      0.378346
Ti      13.76764      5.92879      2.14581         1.002680     -0.198781     -0.289005
Ti      13.85187      5.70654     14.67378        -2.408561      0.108502      0.303106
Ti       1.97808      5.83721      6.42336        -0.114355     -0.240707     -0.577198
Ti      13.72225      5.72596      6.10519        -0.301076      2.340882      2.383972
Ti       1.94968      5.87017     10.52207         0.701428     -0.324132      1.724186
Ti      13.72533      5.50806     10.80987        -0.727204      2.246727     -1.201203
Ti       1.84203      9.74452      1.98301         1.992922      1.205295      2.904163
Ti       1.94405      9.72046     14.48447         1.145443      2.518627     -2.070968
Ti      13.83092      9.64382      2.40630         0.088168     -1.033806     -0.414155
Ti      13.78023      9.67011     14.33021        -0.753650     -0.534485     -0.439983
Ti       1.85085      9.63551      6.24148        -1.231784     -0.831264      3.605291
Ti      13.58552      9.54183      6.24639         0.027273     -0.258706      0.145474
Ti       1.95713      9.62803     10.58449         0.478439      0.612137      1.161280
Ti      13.74790      9.47717     10.49108         0.751054      1.944247      0.646364
Ti       5.89822      2.02636      2.09494        -0.563793     -1.400685      0.520577
Ti       5.82447      2.05420     14.32011        -0.521438     -1.161196      2.985555
Ti       5.90458     13.65869      2.23351        -1.056910      0.536134     -0.891545
Ti       5.52275     14.04127     14.26835        -0.865961     -0.411295      4.645481
Ti       5.89628      1.81865      6.22107        -1.910410     -0.340677      0.680774
Ti       5.72208     13.70933      6.29149         0.195484     -0.162590     -0.472597
Ti       6.13745      1.92388     10.51824        -3.055232      2.648611     -0.478622
Ti       5.94240     13.85676     10.18099        -1.310816     -2.546991      2.339970
Ti       5.83703      5.99543      2.12653        -0.669039     -1.359846     -1.644524
Ti       5.86105      5.72823     14.52563        -0.150061      1.376587      1.528283
Ti       5.66614      5.88530      5.97517         2.745907      2.381024      1.755903
Ti       5.85344      5.94584     10.53359        -1.691504     -1.821567      1.195470
Ti       5.77965      9.86288      2.22009        -0.280767      2.386380     -1.395535
Ti       5.71556      9.90537     14.63601        -0.561582     -0.770140      0.769213
Ti       5.72477      9.75628      6.10823        -0.763700     -1.623002      2.246129
Ti       5.85866      9.93729     10.63324        -1.283428     -1.232299     -1.137105
Ti       9.75503      1.92925      1.88380         0.926065     -3.346462     -1.987854
Ti       9.87982      1.87472     14.68636         0.452554      0.185262      1.135521
Ti       9.99141     13.63909      1.82615        -3.724088      1.140760      0.546347
Ti       9.75415     13.57585     14.37375         2.877539      0.471051      1.975023
Ti       9.63297      1.89578      6.18852         1.410599      0.376656      1.181942
Ti       9.51240     13.46921      6.15395         0.858877     -0.239523      0.912010
Ti       9.60417      1.97191     10.08629         2.369052     -1.233266      3.480214
Ti       9.52589     13.42159     10.37965        -0.368630      2.391585     -0.863873
Ti       9.87327      6.04579      1.79886        -0.568646     -0.818335     -0.080836
Ti       9.77599      5.80630     14.44943         1.023951      0.125669      2.327967
Ti       9.72234      5.64093      6.47435         0.567715      1.802959     -0.680090
Ti       9.62692      5.84441     10.62612        -0.167048     -0.253590     -0.713807
Ti       9.61116      9.76685      1.78186         1.181404     -1.426855      3.241293
Ti       9.60139      9.61329     14.95779         0.866713     -0.423412     -4.073659
Ti       9.65055      9.49844      6.10086         1.777643     -0.397078      2.175891
Ti       9.76686      9.61016     10.51960        -0.910877      0.239427     -0.712260
O       2.08157      2.05901      0.53015        -0.557397     -0.049571     -0.120422
O       2.09460      2.11414     12.93340        -1.380475     -0.526894     -0.297271
O       2.05234     13.59457      0.56810        -1.801566      1.568457      0.419123
O       1.80558     13.66551     12.58776        -0.675280      0.095254      1.606438
O      13.99261      1.62506      0.37786        -1.049364      0.889872      1.264275
O      13.52935      1.95431     12.61082        -0.102800     -0.401019     -1.172178
O      13.61582     13.71786      0.21720        -0.185877     -0.967691      1.855846
O      13.52517     13.65474     12.88825         0.020499     -0.278443     -1.344829
O       2.09733      2.06804      4.38699        -0.349854     -0.515369     -0.940177
O       1.94488     13.69349      4.39139        -0.042313     -0.070962      3.054320
O      13.62447      1.92738      4.40660        -0.680585      0.276029     -1.305629
O      13.51229     13.67365      4.42928        -0.049227     -0.779479     -2.654575
O       1.72157      1.89075      8.52158         0.071353      0.077536     -0.366465
O       1.97211     13.57557      8.45258        -1.232734      0.359683     -1.146734
O      13.20397      2.13459      8.63233         1.195477      0.129324     -1.374399
O      13.44217     13.46990      8.27510        -0.617477     -0.025985      0.935397
O       2.02103      6.18859      0.47853        -0.171986     -0.961202     -0.993675
O       2.01067      6.04535     12.90202        -1.256217     -1.997552      1.559979
O      13.88465      6.06880      0.35325        -0.794353     -0.836922      0.162533
O      13.78026      5.73826     12.81865        -0.082760      0.062844      0.682780
O       1.86851      5.86315      4.54603         0.352448      0.281976      0.002674
O      13.83593      5.94966      4.41366        -0.569562     -0.328247     -2.002385
O       2.00810      5.73125      8.85811        -0.229183      0.220873     -3.704092
O      13.62955      5.64027      8.90048        -0.676822      0.284381      0.379035
O       1.57971     10.04694      0.22025         1.151094     -0.197253      0.144525
O       1.94110      9.74757     12.69646         0.668226      0.026785      0.597190
O      14.02382      9.82629      0.35994        -1.373515     -0.549910      0.758314
O      13.68512      9.71048     12.47614        -0.404123      0.382813      2.532231
O       1.94993      9.56082      4.56235         0.254204      0.469365     -2.170518
O      13.55811      9.66034      4.36155        -0.548429     -0.239178     -0.591681
O       2.00323      9.54658      8.79940        -0.550222     -0.121178     -1.496560
O      13.86176      9.52629      8.69897        -0.666961     -0.077328     -0.570805
O       5.50014      1.93385      0.29177         1.599968     -0.057611      0.431027
O       5.77702      1.98051     12.57101         0.619952     -0.116664     -0.749283
O       6.04404     13.50367      0.20634        -0.421804      0.830535      0.372940
O       5.76245     13.81753     12.60097         0.175900      0.206810     -1.570696
O       5.87014      1.73617      4.48045         1.206519      0.994398     -0.273714
O       5.86979     13.84637      4.36394         0.051962     -0.882212      0.584633
O       5.92112      1.84364      8.67016         0.700524     -0.096660     -0.679043
O       5.87681     13.82350      8.40178         0.579341     -0.421175     -0.005388
O       5.80795      5.91909      0.21503         0.482408     -0.278074      1.011912
O       5.69235      5.26894     12.85345         0.392597      1.743922     -0.355107
O       5.84677      5.97109      4.15760         0.143282     -0.230255      0.446484
O       5.60998      5.87341      8.81949         0.466757     -0.343986     -1.795636
O       5.89598      9.58536      0.39791         0.078556      0.792795     -0.931276
O       5.57052      9.80233     12.65533         1.526457     -0.197840      1.249160
O       5.87764      9.58055      4.29683        -0.058812      1.148376     -0.218734
O       5.74750      9.79223      8.50767         0.538941     -0.273131      0.638174
O       9.92151      1.92011      0.06849        -0.852612     -0.047702      0.748522
O       9.64070      2.01895     12.70648         0.365600     -0.384531      1.309121
O       9.79310     13.73997      0.06191         0.440959     -0.158621      0.322231
O       9.96546     13.42243     12.56674        -1.349525     -0.568066     -0.376185
O       9.87847      1.74225      4.28786        -0.071325      1.730667      0.540829
O       9.65719     13.42368      4.24336         0.383438     -0.157986      1.227908
O       9.74981      1.85139      8.37715        -0.712114     -0.012807     -1.870019
O       9.60616     13.53327      8.55466        -0.214031     -0.067205     -0.245571
O       9.96601      5.65217      0.05996        -1.090624      1.008393      1.428409
O       9.52730      6.03569     12.71462         0.564649     -1.810485     -0.330091
O       9.80527      5.61280      4.58609        -0.462573     -0.796314     -0.780171
O       9.78142      5.86051      8.84737        -0.787437      0.382106     -1.612915
O       9.74541      9.27510      0.05603        -0.026236      0.073037      1.806980
O       9.58546      9.82189     12.66075         0.262523      0.077068     -0.174747
O       9.67265      9.81617      4.29165         0.179825     -0.417361      0.493670
O       9.52900      9.57408      8.46146         0.063627      0.492304      2.187444
O       4.11785      2.01879      2.68981        -0.500840      0.557648     -1.082077
O       3.92927      1.94231     14.66716         0.874514      0.499645      0.556662
O       4.06644     13.49766      2.45800        -1.466743      0.637844     -0.420831
O       3.72136     13.93604     14.78747         2.082055     -0.688644     -0.910539
O      15.57054      1.83090      2.62041         0.804197      0.578800     -0.780557
O      15.48652      2.18660     14.77985         2.367397     -0.457405      0.142431
O      15.58593     13.85481      2.63933        -0.023899     -0.958450     -0.770327
O      15.35032     13.64304     15.07519         2.079644      0.840874     -1.279587
O       3.91149      1.76945      6.51507         0.649497     -0.164689     -0.031244
O       3.83205     13.53695      6.67343        -0.532588      0.031311     -1.259280
O       0.03465      2.16365      6.17807        -0.640894      0.038057      1.232828
O      15.39031     13.58675      6.61487         1.602449      0.023795     -0.578769
O       3.70963      1.82334     10.46147         0.044846      0.278577      0.762882
O       3.80888     13.63375     10.19419         1.503873     -0.349165      0.994940
O      15.33669      1.66745     10.46771         0.931865      0.401346      0.171600
O      15.34985     13.81371     10.20988        -0.668013     -0.409738      0.563007
O       3.92681      5.84943      2.41955         1.297899      0.005343     -0.045523
O       3.92146      6.01435     14.94017        -0.493021     -0.305201     -0.406678
O       0.08678      5.83291      2.40121        -0.578915     -0.739366      0.161319
O       0.04971      5.90193     14.91541         1.591955     -0.433999     -0.015508
O       3.95136      6.07855      6.35989        -1.614766     -0.317195      0.208366
O       0.02122      5.34428      6.52929         0.369893      0.575402      0.232466
O       3.81959      5.85435     10.91286         0.126615      0.178055      0.221799
O      15.55289      5.89316     10.80926         0.585904     -0.287350      0.429554
O       3.86737     10.00430      2.27580         0.127310     -0.851813      0.080137
O       3.75309      9.86680     15.07841         3.030786      0.149555     -0.624895
O       0.23041      9.68288      2.78917        -3.115750      0.350404     -1.040202
O       0.07009      9.91921     14.56008        -2.029481      0.093965      0.644999
O       3.70012      9.70533      6.40112         3.402132     -0.692997     -0.073933
O      15.49801      9.82219      6.32636        -0.381328     -0.519360      0.589532
O       3.89694      9.58600     10.57698         0.788280      0.971432      0.191429
O       0.07154      9.61023     10.69724        -2.456604     -0.481603      0.020029
O       7.96719      1.66926      2.00707        -0.955864      0.763905      0.848081
O       7.79364      1.70713     14.85216         0.660560      1.585755     -0.713881
O       7.89433     13.65970      2.11240         0.904976     -0.228099      0.436896
O       8.05529     13.55160     14.85085        -2.054818      0.608786     -1.253545
O       7.78039      1.98098      6.38064        -0.595107     -0.618264      0.262115
O       7.63377     13.69627      6.30352         2.312692     -0.869143      0.496280
O       7.91022      1.75520     10.77668        -2.144613      0.149020     -0.082087
O       7.66531     13.82943     10.57735         1.355066     -0.286689     -0.079378
O       7.74422      5.87865      2.25780         1.751411     -0.526214     -0.333462
O       7.84408      5.59243     14.74395         0.240669     -0.025597      0.127379
O       7.63315      5.89605      6.39210         0.387126     -1.716720      0.982064
O       7.63032      5.92531     10.86793         2.239462     -0.569478      0.364606
O       7.76226      9.81660      2.55828        -0.360202     -0.372361     -1.445871
O       7.79190      9.64683     15.00045        -1.564438      0.656133     -1.019315
O       7.75261      9.59442      6.55788        -1.288692      0.439209     -1.305816
O       7.70060      9.57461     10.66421        -0.409389      0.498061      0.220809
O      11.72826      1.70808      2.07387         0.308422      1.053794      0.628186
O      11.73943      1.88455     14.91524         1.314639      0.182797     -0.682116
O      11.69323     13.26505      2.19013         1.463716     -0.134341      0.626206
O      11.67150     13.35005     14.78357        -0.655330      0.478311      0.255064
O      11.69956      1.91187      6.39355        -1.551672      0.915569     -0.474525
O      11.50413     13.51337      6.32431        -0.835969     -0.538977     -0.238925
O      11.45184      2.10933     10.56096         1.026133     -0.159727     -0.105247
O      11.68903     13.52217     10.57567        -3.104123     -1.029280      0.436165
O      11.66274      5.94220      2.45485        -0.428866      0.270029     -0.856708
O      11.80073      5.86020     14.95793         0.012408      0.737805     -1.166836
O      11.62247      5.90661      6.50580        -0.078565     -0.831733      0.234917
O      11.44856      5.54869     10.79567         1.928977      0.543157      0.522427
O      11.48916      9.33772      2.06487         0.752529      1.400792      0.629738
O      11.73547      9.59308     14.88050         1.533929     -0.444192     -0.650279
O      11.53479      9.70704      6.65562         0.362229     -0.082746     -1.279358
O      11.58198      9.90691     10.55099         0.348637     -0.428484     -0.008860
O       2.12251      4.00881      2.64519        -0.534196     -0.631988     -1.264914
O       2.09977      3.90542     15.03412        -0.646191      1.357779      0.179728
O       2.11340      0.05218      2.44793        -0.357523      0.752957      0.129420
O       2.05303      0.14605     14.92540        -1.634384     -1.074576      0.470902
O      13.44483      3.79492      2.11955         0.851613      0.856226      0.265492
O      13.73261      3.93611     15.13332        -0.006209     -0.262930     -0.426719
O      13.54898     15.42799      2.51025        -0.491905      0.140129     -0.503982
O      13.74560      0.11457     14.74558        -0.552823     -2.539512      0.346958
O       2.41047      3.85513      6.42361        -1.214367     -0.063796      0.247526
O       1.64459      0.02267      6.44918         0.255900     -1.337585     -0.009347
O      13.50155      3.98359      6.52365        -0.370554     -2.087479      0.060703
O      13.42479     15.58030      6.44283         0.538249      0.356150     -0.156024
O       1.88906      3.80222     10.64954        -1.128078     -0.125179      0.913457
O       1.93810     15.51898     10.73962        -0.397622      1.007721     -0.581477
O      13.80297      3.80662     10.90636        -0.263674     -2.197876     -0.283467
O      13.11792      0.02771     10.42344         1.152441     -1.131423      0.147576
O       2.12372      8.02917      2.60381        -0.166813     -1.898332     -1.435567
O       1.94749      7.98808     14.86406        -0.018902     -1.941531      0.233697
O      14.10854      7.81485      2.20781        -1.431884      0.749205      0.675439
O      13.87803      7.89984     14.71921        -0.353400     -0.137518      0.198594
O       1.60524      7.57354      6.68025         0.021378      1.537682      0.063534
O      13.85316      7.70112      6.63593        -0.451507     -0.001747     -0.184262
O       1.88104      7.71620     10.93680         0.009780      0.294007     -0.683641
O      13.41901      7.66732     10.83909         0.241435      0.325771     -0.198900
O       1.79493     11.70402      2.66560         1.302079     -0.300886     -1.772719
O       1.87530     11.96062     14.72882         0.009797     -1.752046      0.795954
O      13.94328     11.61655      2.41200        -0.290627     -0.991099      0.050040
O      13.65324     11.68785     14.73359        -0.003226     -1.167155     -0.597000
O       1.89345     11.46702      6.62462        -0.191076      2.308282     -0.305908
O      13.64768     11.55982      6.50740        -0.793358     -0.050532     -0.437879
O       1.80703     11.69538     10.50542         0.292541     -0.639250      0.138426
O      13.66315     11.59208     10.65488        -0.268191      0.494058     -0.356735
O       6.17770      3.84545      2.34143        -0.762965      0.704963     -0.188761
O       5.80226      3.81487     14.95583         0.762062      0.405350      0.437785
O       5.69993      0.08280      2.20771         0.759754     -1.128967      0.037495
O       5.90873      0.18136     14.78892        -0.364547     -1.972459     -0.568205
O       5.50180      3.94014      6.44726         1.906734     -0.795099     -0.167989
O       5.76415     15.45563      6.44903         0.392298      3.053901      0.370639
O       5.66452      3.82340     10.65707         1.291893     -1.532071     -0.217810
O       5.63570      0.01490     10.57726         0.544667      0.436078     -0.036956
O       5.76895      7.85110      2.17390         0.424992      0.240737      0.922099
O       5.97237      7.76803     14.69735        -0.501027      0.298579     -0.173613
O       5.92537      7.76937      6.32051        -0.672865      1.028703     -0.131238
O       5.77534      7.78774     10.70640        -0.037844      0.818828      0.278352
O       5.89904     11.85088      2.47859         0.789756     -2.885430     -0.017275
O       6.08258     11.71156     14.47225        -1.032615     -0.428461      0.442885
O       5.65772     11.57193      6.23536         1.167151      0.897850      0.423346
O       5.71381     11.78860     10.65610         0.789385     -0.065845     -0.441157
O       9.85156      3.75549      2.18373         0.023572      1.888033     -1.327288
O      10.08369      3.75759     14.62068        -1.628519      1.343182      0.211500
O       9.91439     15.47107      2.40373         0.697758     -0.701073     -1.167878
O      10.04529     15.47602     14.46642        -1.125377     -0.321675     -0.336659
O       9.44225      3.75773      6.81607         1.549175      0.919159     -1.276788
O       9.78795      0.01304      6.43245        -0.983211     -0.775265     -0.614924
O       9.56850      3.76675     10.59070        -1.163011      1.600795      0.270634
O       9.70109     15.59567     10.56709         0.411165     -0.520249      0.228830
O       9.35556      7.78608      2.28016         1.419508     -0.990375     -0.396805
O       9.76679      7.78061     14.47956        -0.031210     -0.954241      0.529649
O       9.62765      7.58374      6.34487        -0.384884      1.808058     -0.346356
O       9.79774      7.82824     11.03302         0.112680     -0.458496     -1.369856
O       9.64390     11.53686      1.92147         0.915869      1.809044      0.523613
O       9.93473     11.44053     14.79328        -0.966932      1.700312     -0.138473
O       9.44944     11.50195      6.50336         0.629978      2.179562     -0.572695
O       9.36603     11.64585     10.52168         0.809489     -0.692982      0.253087
