  # total energy = -7827.84403969 
CRSYTAL
PRIMVEC
    15.6080000000000005    0.0000000000000000    0.0000000000000000
     0.0000000000000000   15.6080000000000005    0.0000000000000000
     0.0000000000000000    0.0000000000000000   16.6239999999999988
PRESSURE
5.31657 4.83481 0.174989 -0.046913 0.079642 0.331026
PRIMCOORD
320 1
Pb       4.33510      4.07953      4.29584        -0.919444     -0.704390     -0.051158
Pb       4.15144      3.71641      0.07801        -1.100522      0.946543     -0.292607
Pb       4.35016      0.13294      4.26640        -1.392665     -0.576886      0.230794
Pb       3.91493      0.15686      0.58198        -1.784627     -1.106684     -2.091650
Pb       0.52606      4.04881      4.26383        -1.795087     -2.120358     -0.837871
Pb       0.09152      3.93761      0.37957         0.028910     -1.224517     -1.544615
Pb      15.32670      0.02990      4.24312         1.503364      0.269055      0.537103
Pb       0.10876      0.05642      0.11275         0.961340      0.272378     -0.484929
Pb       4.01788      3.67059      8.22158        -0.209170      0.649720     -0.109764
Pb       3.95799      0.02244      8.92756        -0.583289     -0.442441     -2.026821
Pb      15.46543      3.74100      8.22144         0.269597      1.356712      0.776470
Pb      15.04681     15.43099      7.97907         1.426298      1.221941     -0.151702
Pb       3.68879      3.84683     12.25048        -0.228590      0.715912      0.704959
Pb       3.72242      0.52012     12.42608        -0.491001     -1.919487     -0.152922
Pb       0.28597      3.83745     12.57611        -0.722126      0.227258      0.943583
Pb      15.14184     15.31219     11.87253         1.563176      0.787161      1.697106
Pb       3.90527      8.30790      4.19989        -0.507677     -1.132901     -1.323768
Pb       3.96146      8.00366      0.10190        -0.028567      0.023011     -0.169790
Pb       0.26940      7.60917      4.21298        -1.775410      1.546901     -1.151583
Pb       0.18687      8.25276     16.53366        -0.459931     -1.108590      0.231547
Pb       4.21769      7.88145      8.98602        -0.759157     -0.571934     -1.810608
Pb       0.05603      7.79550      8.72209        -0.973024     -1.092703     -1.326905
Pb       3.76017      7.38243     12.97314         0.278264      0.716202     -1.107653
Pb       0.05672      7.47094     12.69389        -0.068528     -0.629978     -0.576650
Pb       3.57449     12.16673      4.91653         0.795057     -1.290253     -2.955733
Pb       3.28173     12.03693      0.50419         1.593437     -1.134671     -3.518819
Pb       0.20854     11.62562      4.29129        -0.581993      0.284894     -0.095201
Pb      15.38181     11.75479     16.30794         0.921362     -0.749256      1.132427
Pb       3.62629     11.49015      8.54160         0.745549      0.916981     -1.456203
Pb      15.32236     11.54653      8.21669         0.958567     -0.964821     -0.384951
Pb       4.40861     11.86132     12.67134        -1.075902      0.356872     -0.375023
Pb      15.11319     11.89269     12.46090         1.616708     -0.847712      0.594265
Pb       8.07275      3.98870      3.59937         0.037288      0.089738      0.581675
Pb       7.77675      3.94708     16.43504         1.183812      0.094348      0.645705
Pb       8.48926     15.58111      4.12653        -2.171194     -0.006421      0.435610
Pb       7.59345     15.26800     16.58556        -0.181953      1.418647     -0.652578
Pb       7.47879      4.04896      8.02905         0.460707     -1.452653      1.594355
Pb       7.64504      0.02326      8.41718         0.366366      0.440935     -0.614026
Pb       7.95920      3.92241     12.48239         0.202397      0.371664      0.253224
Pb       8.17214      0.26435     12.94799        -1.341785     -0.671076     -1.441389
Pb       7.49009      7.88211      4.06732         0.988570      0.178230     -0.947293
Pb       7.52263      7.90647      0.29557         0.774547      0.505932     -0.668681
Pb       7.71556      8.09199      8.33005         0.426901     -1.384186     -0.045660
Pb       7.61940      7.97828     12.68929        -0.454545     -0.674864      0.185995
Pb       7.64227     11.88568      4.04834         0.088155     -0.056760      1.213573
Pb       7.98534     12.07496      0.02933        -1.049720     -2.017374     -1.074732
Pb       7.60259     11.39128      8.04778        -0.512589      1.520863      0.112837
Pb       8.03792     11.45029     12.90031        -0.865116      1.571340     -0.171663
Pb      11.35872      3.64323      3.88431         2.001712      2.540000      0.039243
Pb      11.93911      3.73945     16.54194         0.862194      0.306567      0.882526
Pb      11.77585     15.18207      4.41723        -0.080959      0.201158     -0.531577
Pb      12.31256     15.60307      0.45218        -0.516764     -0.342028     -0.178572
Pb      11.57317      4.12114      8.68705         0.153828      0.243896     -2.278376
Pb      11.61288      0.40352      8.12882        -0.477667     -1.181446     -0.521752
Pb      11.55419      3.31191     12.57246         0.294980      1.815683     -0.412148
Pb      11.46063     15.08984     12.18476         0.512459      0.402866     -0.414728
Pb      11.06475      7.48266      4.24837         1.160110     -0.511729      0.003075
Pb      12.13187      7.90471      0.07796        -0.581767     -0.464676      0.519996
Pb      12.07512      7.46427      9.05192        -0.481212      1.528456     -2.035597
Pb      11.51047      7.61308     12.82855        -0.326544     -0.032475     -1.257153
Pb      11.30345     11.38998      3.96412         1.631712      0.971488     -0.565170
Pb      11.93702     11.43182     16.23347        -0.479396     -0.063038      1.266900
Pb      11.05331     11.63990      8.29578         1.808737     -1.143931      0.412926
Pb      11.61976     11.51342     12.28246         0.399976      0.493379      0.203715
Ti       1.95679      2.03603      2.23438        -0.689166     -0.098255      0.287260
Ti       2.12446      1.98982     14.63686        -2.930743     -0.760581      0.225292
Ti       1.77426     13.68602      2.35899         2.756799      1.459344      0.225377
Ti       1.80784     13.67490     14.56863         2.424278      0.104854     -0.550446
Ti      13.51429      1.86071      2.43976         1.308417      1.573356     -2.130040
Ti      13.75374      1.80152     14.29937         3.354848      1.233681     -0.267973
Ti      13.78040     13.35454      2.34616        -1.612453     -1.293381     -0.901949
Ti      13.61657     13.78780     14.73353         0.244908     -1.013334     -1.432430
Ti       2.17414      1.96671      6.37507        -1.919412     -2.832617     -1.497956
Ti       1.65181     13.78503      6.51774         2.309256      1.959127     -0.495744
Ti      13.55682      2.35837      6.23281        -0.052853     -0.896589     -0.403489
Ti      13.41048     13.26642      6.19660         0.688696      0.376933     -1.802331
Ti       1.67024      1.69737     10.28165         0.970712      1.224866      0.221015
Ti       1.97562     13.36361     10.37842        -0.069273      2.268282     -1.864346
Ti      13.46062      1.85808     10.25227         0.602887     -0.073764      0.317682
Ti      13.55210     13.32448      9.93660        -1.653834      1.518209      1.893491
Ti       2.14080      5.95040      2.14040        -1.058732     -1.534179     -1.294695
Ti       1.91538      5.83709     14.87786         0.036902     -1.165941     -0.197092
Ti      13.85910      5.71095      1.92775        -1.139957      0.264315      0.851042
Ti      13.72534      5.66572     14.54588         0.759534     -1.281385     -0.067479
Ti       1.76856      5.82687      6.15433         1.377352      0.534731      1.799184
Ti      13.51589      5.97289      6.01886        -0.700517     -1.930193      0.822608
Ti       1.90350      5.88790     10.39745        -0.692271     -2.822207     -0.564094
Ti      13.59156      5.43415     10.64945         2.906219      2.173020      1.524704
Ti       1.84307      9.81441      2.18971         1.151659      0.038038      0.194909
Ti       1.94913      9.78571     14.21100        -0.371444      1.346474      2.127908
Ti      13.83869      9.48373      2.38312        -1.773402      0.023249     -1.641376
Ti      13.67783      9.47868     14.30609         2.098369      1.888945     -1.163871
Ti       1.80185      9.59127      6.36852         0.779297      0.134460     -0.041412
Ti      13.48213      9.55453      6.15336        -0.032456     -0.965039      1.340912
Ti       2.17964      9.56296     10.45554        -2.942115      0.915976      1.250824
Ti      13.78985      9.65627     10.37971        -0.651765     -1.600747      0.145649
Ti       5.71667      1.97530      2.10991         2.721623      0.154794      0.401723
Ti       5.85633      2.13677     14.27142         1.137818      0.091381      2.021677
Ti       5.83475     13.67952      2.10796        -1.323797      0.011302      0.206849
Ti       5.57306     14.06106     14.33210         1.912484     -2.793183     -1.363896
Ti       5.98133      1.79564      6.26873         1.060909      1.230375     -0.888265
Ti       5.78996     13.80311      6.26633         0.641026     -0.798332      0.209747
Ti       5.89892      2.10884     10.44129         1.554433     -1.605141     -0.889183
Ti       6.03625     13.66172     10.18041        -0.696084      3.218514      0.408916
Ti       5.89993      5.86436      2.04736        -0.169228      1.596047     -0.741269
Ti       5.95019      5.82858     14.50010         0.349560      0.650273     -0.213459
Ti       5.62282      6.10401      6.05788         1.087815     -2.136832      0.696099
Ti       5.71173      5.89067     10.52062         0.357518      0.085105      0.448161
Ti       5.66795     10.08210      2.07916         0.267543     -4.451891     -1.492190
Ti       5.69998      9.93418     14.67055         1.375564     -0.139492      0.262753
Ti       5.66257      9.76107      6.07698         2.919249      1.625773     -0.837213
Ti       5.93788      9.99397     10.42572         0.329761     -1.038910      1.807639
Ti       9.73673      1.73647      1.80518        -0.665760      2.909914      0.833976
Ti       9.97559      1.86239     14.78941        -0.485626      0.278820     -1.269034
Ti       9.78331     13.66413      1.75971         2.352877     -1.386513      1.370855
Ti       9.93503     13.60385     14.48456        -1.876194     -0.952526     -0.522375
Ti       9.79764      1.99348      6.12857        -1.398689     -0.299046      0.452574
Ti       9.62389     13.31755      6.11687        -0.791675      4.151346      0.606361
Ti       9.62625      2.03076     10.10908        -1.741361     -0.797159      0.712975
Ti       9.65443     13.56443     10.05247         0.686986      1.044925      0.840901
Ti       9.93157      6.02378      1.79354        -1.123799     -2.938913     -3.546896
Ti       9.87937      5.64637     14.45130        -1.328425      3.802946      0.784454
Ti       9.61105      5.67933      6.58367         1.202800      1.495135     -1.950448
Ti       9.45489      5.91425     10.42643        -0.134091      0.153697      0.866048
Ti       9.75257      9.64369      2.02809        -0.858104      0.948210     -3.075051
Ti       9.56978      9.56358     14.71650         0.415639     -1.468721      2.341936
Ti       9.65596      9.58468      6.12300         0.052509      0.265155     -1.241238
Ti       9.81126      9.78025     10.61365         0.629194     -1.157501     -0.436316
O       2.14307      2.38045      0.22540        -0.094097     -1.575094      0.854610
O       1.64709      1.64106     12.85021         2.561731      0.913891     -0.106617
O       1.52615     13.76234      0.50785         1.668743     -1.140766     -0.593547
O       1.57515     13.47754     12.82640         0.958442      0.577082     -1.439957
O      13.92424      1.79970      0.58283        -0.896695     -0.172936     -0.643063
O      13.38281      1.69608     12.46058         0.344442     -0.400981     -0.475766
O      13.62349     13.53486      0.48000         0.535259      0.800319     -2.797979
O      13.66542     13.55392     12.82196        -0.780640      0.551623      1.123383
O       1.90565      1.76349      4.50375         0.242247      0.635703      0.153858
O       1.95335     13.93139      4.54615        -0.541953     -1.371122     -1.431200
O      13.51732      2.08897      4.33334         0.264198     -0.353501      0.722881
O      13.82286     13.16892      4.24131        -0.792105      1.533159      2.431671
O       1.76368      1.81613      8.45175         0.655102      0.660910      0.630479
O       1.79901     13.78969      8.51715        -0.038351     -0.694235      1.312461
O      13.39014      2.09294      8.26062        -0.190478     -0.603353      2.894928
O      13.50250     13.29115      8.17164        -0.431230     -0.244412     -0.597986
O       1.88589      5.78201      0.24263         0.123016     -0.283801     -0.829024
O       1.86173      5.79555     12.90394         1.718027      0.757202     -1.160684
O      13.84147      5.72659      0.02887        -0.728156      0.562859      0.418271
O      13.76782      5.63542     12.66474         0.140748      0.364036      0.018235
O       1.81964      6.00335      4.12511         0.265690     -0.567240      1.926223
O      13.59345      5.73614      4.25610         0.156397      1.189977      0.899946
O       1.93822      5.77655      8.52657         0.458411     -0.365749      0.260681
O      13.82351      5.78466      8.90542        -0.010294     -0.680258     -0.942369
O       1.72444      9.98327      0.40848         0.127010     -0.810338     -0.775723
O       2.01889      9.74181     12.44154        -0.298519     -0.061683     -0.902109
O      13.65861      9.54119      0.47349         1.049303      0.931349     -1.314594
O      13.73437     10.00854     12.50997        -0.400391     -1.777853      0.743850
O       1.98650      9.62947      4.27481        -0.252508     -0.057522      1.342605
O      13.37231      9.30954      4.42754         0.971535      0.273380     -0.944854
O       2.16585      9.31189      8.26422         0.105704      1.488935      0.385489
O      13.79818      9.43841      8.51350        -0.648912      1.681321     -0.705981
O       5.77527      1.86938      0.29035        -0.352569      0.831918      0.308853
O       6.06314      2.22083     12.50976        -1.106979     -0.620210      0.060773
O       5.96517     13.72020      0.16498        -0.007807     -0.314313      0.046676
O       5.54053     14.05544     12.32659         0.734372     -1.515300      1.825040
O       6.16170      1.73501      4.31313        -1.392797      0.328622      0.076590
O       5.85178     13.85219      4.26241         0.303468      0.221034     -0.737342
O       6.02788      2.05577      8.49560        -1.199221     -0.076216      1.533037
O       6.01532     13.88139      8.23747        -0.561135     -1.253316      1.110540
O       5.99669      5.86242      0.24985        -0.262761      0.343646     -0.412720
O       5.72859      5.76091     12.68259         0.496749      0.142372      0.074429
O       5.91214      6.23081      4.21833        -0.303714     -1.545054      0.518267
O       5.33105      5.78726      8.70006         0.557209      0.076875     -0.002333
O       5.71623      9.90038      0.20415        -0.158596     -0.076959     -0.225241
O       6.09744      9.90275     12.71748        -0.975202     -0.046251     -0.591355
O       5.99338      9.69996      4.15398        -0.768851     -0.076257      1.513950
O       5.81872      9.78881      8.55087        -0.307780     -0.036162     -0.351013
O       9.85257      2.17861      0.04498         0.170160     -1.135028     -0.603961
O       9.85400      1.83142     12.92058         0.446652      0.610612     -1.619232
O       9.72501     13.91152     16.60290        -0.029757     -0.346124      0.232724
O       9.75013     13.23194     12.45361         0.766546      1.901538      1.999214
O       9.85680      2.09379      4.21121        -1.550501     -1.213934      0.430266
O       9.67973     13.49808      4.30651         0.483133     -0.599182     -1.923416
O       9.61939      1.79471      8.31680         0.519825      0.545145      0.756396
O       9.81919     13.63880      8.18079         0.078948     -0.014095      1.416028
O       9.69762      5.79568     16.49667         1.035544      0.236274      1.502509
O       9.85050      5.69941     12.56502        -0.645935      0.654322     -2.181785
O       9.56405      5.60801      4.67826         0.502742      1.422460     -1.359186
O       9.51637      5.95361      8.47315         0.060038     -0.022510      2.227767
O       9.75989      9.24661      0.07053         1.075804      1.434460      0.173979
O       9.81429      9.82886     12.83000        -0.255375     -0.255770     -1.887817
O       9.52551      9.89277      4.24475         0.002499     -0.593013     -0.024766
O       9.55035      9.48832      8.89880        -0.285899      0.398735     -2.954337
O       3.92909      2.42824      2.37401         1.246575     -2.102584     -0.149680
O       4.04445      1.99553     14.47387        -0.063607      0.365491      0.211306
O       3.97657     13.50606      2.01134         0.841940      1.118161      1.109107
O       3.94457     13.39803     14.50492        -1.404988      1.580535      0.428454
O       0.13037      1.89915      2.41784        -0.645409     -0.025248      0.282875
O       0.03320      1.86262     14.41489        -1.605232      0.071883      1.809757
O       0.08537     13.62877      2.44296        -2.152472      1.514166      1.368851
O       0.08809     13.75138     14.90909        -3.499562     -0.197720      0.453092
O       3.92819      1.80307      6.64084         0.564845      0.228495     -0.240474
O       3.92924     13.74250      6.32585        -0.068389      0.383232      1.205849
O      15.39553      2.12007      6.71515        -0.342748     -0.495618     -1.842985
O      15.50234     13.56194      6.47468        -2.613459     -0.161365     -0.092754
O       3.71635      1.83227     10.52050         1.855382      1.132488      0.068936
O       3.80641     13.61133     10.15388        -0.898325     -0.629790      0.843686
O      15.50663      1.53392     10.38241        -2.840868      0.976140     -0.252814
O      15.35656     13.60567     10.30825         1.167034     -0.385757      0.118887
O       3.91446      6.07309      2.07694         1.872244     -0.811575      0.467467
O       4.03043      6.06001     14.73397        -0.646302     -0.712972      1.114197
O       0.00334      5.25775      2.19521        -0.158040      2.286239      0.765826
O       0.14861      5.69569     14.46314        -1.860324     -0.009179      1.491818
O       3.75018      5.95219      5.87906        -0.026514     -0.180459      1.055505
O      15.50780      5.51485      6.56031         1.358374      0.384452     -1.384065
O       3.78445      5.81920     11.08046         0.218076      0.351677     -1.694732
O       0.11264      5.78762     10.83071        -0.070632      0.351578     -0.405964
O       3.78312      9.79739      2.25582         1.673384     -0.278980     -0.123096
O       3.92198      9.73627     14.79981        -1.701739     -0.236667     -0.689464
O       0.09106      9.66873      2.59785        -1.265829     -0.658547      0.398129
O       0.02603      9.76454     14.62346         0.085575     -0.357593      0.067340
O       3.95347      9.84491      6.13716        -2.798832      0.167654      0.651830
O       0.07542      9.74470      6.37843        -2.216766      1.043114     -0.015242
O       3.93539      9.79806     10.66717         0.487537      0.070408     -0.839407
O      15.59837      9.44438     10.27134         2.279560      1.810687      1.161116
O       7.83131      1.88964      2.08356         1.087840      0.014745     -0.100579
O       8.00773      2.26222     14.67693        -0.479029     -1.630073     -0.094613
O       7.91408     13.59285      2.06878         0.119467      0.807687      0.114819
O       7.84809     13.76435     14.60724         0.416519      0.256667      0.303325
O       7.76727      1.61617      6.60879         0.813911      1.137200     -1.462786
O       7.89145     13.79766      6.21613        -1.462047      0.168975      0.233832
O       7.87730      1.66710     10.81240        -0.631857      0.615023     -1.172370
O       7.86274     13.92044     10.06869        -0.384319     -0.987155      1.403055
O       8.07200      5.85014      2.04233        -2.586354      0.406690      1.207459
O       7.83368      5.61216     14.32966        -0.646753      0.438863      0.909039
O       7.47033      5.64330      6.67117        -0.196859      3.172153     -1.683311
O       7.62956      5.91471     10.53312         0.693567      0.514627      0.244155
O       7.84912      9.67246      1.81373         0.365191      0.979296      1.495139
O       7.79824      9.92545     14.84291        -0.081664     -0.376912     -0.238942
O       7.53776      9.67291      6.39044         1.908990     -0.253150      0.952424
O       7.67278      9.96924     10.61898         1.118757     -0.796130      0.243850
O      11.70838      2.01687      1.99783        -0.419122     -0.492573      0.561077
O      11.98365      2.19186     14.61176        -2.941161     -0.716883      1.515461
O      11.82674     13.44131      2.40004        -1.232595      0.111724     -0.132655
O      11.76944     13.54368     14.94364         0.246851      0.165478     -0.575833
O      11.50485      2.37073      6.41044         1.238698     -2.071125      0.170635
O      11.56249     13.36585      6.14413         1.985607     -0.555743      0.067351
O      11.46723      2.28728     10.32928         1.835452     -1.250054      0.374264
O      11.54890     13.19132     10.48196         1.873652      0.790681     -0.551539
O      11.62557      6.34104      2.30007         0.973326     -1.563691     -0.216542
O      11.73929      5.89226     14.22361         1.761279     -0.186712      2.264096
O      11.56403      5.69570      6.75376         0.485587      1.714187     -0.807829
O      11.83326      5.70597     10.45060        -2.763984     -0.729192      1.119089
O      11.87672      9.71330      2.17909        -1.706653      0.331536      1.023324
O      11.92821      9.49087     14.72139        -1.464472     -0.103798      0.262383
O      11.52209      9.93920      6.19164        -0.065120     -0.721230      0.771561
O      11.78837      9.92823     10.40467        -2.105346     -0.061646      0.836123
O       1.93939      3.91778      2.50681         1.165025      0.148416      0.025434
O       2.15354      3.88515     14.67577         0.099971     -0.591533     -0.071714
O       2.25358      0.10335      2.23387        -0.145450      0.006921      0.009756
O       2.12163      0.00483     15.29969        -0.230251     -0.009647     -1.413130
O      13.37163      3.96300      2.13571        -0.243360     -0.930527      0.000791
O      13.84143      3.82151     15.01112        -0.563490      0.007075     -1.298878
O      13.55988     15.54101      2.49054         0.380393      0.060393      0.265265
O      13.72285     15.60105     14.81140        -0.551097     -0.924655      0.444773
O       2.33843      3.81399      6.13610        -1.263462      2.105754      0.743378
O       1.69371     15.59994      6.44295        -0.405900      0.701649      0.885122
O      13.36731      4.06618      6.43734         1.234793     -0.017858      0.256702
O      13.34264     15.50469      6.33373         0.406431     -0.564606     -0.264262
O       1.83474      3.81701     10.97423         0.642996     -0.856982     -2.016725
O       1.89968     15.58558     10.94190         0.375212     -1.514227     -1.386430
O      13.79460      3.61024     10.74573        -0.150350     -0.808825     -0.955595
O      13.46668     15.37763     10.24277        -1.306492      0.891235     -0.261823
O       1.85706      7.71432      2.06688        -0.371586      1.918207      0.507852
O       1.81215      7.77949     14.77010         0.939199      1.301658     -0.145042
O      13.82642      7.60300      2.02558         0.744245      1.458322      1.040886
O      14.05424      7.64803     14.63161        -1.322787      0.668962     -0.135255
O       1.37200      7.76754      6.18646         2.215854     -2.385522      0.520578
O      13.71281      7.64791      6.72172        -0.331055      1.386596     -1.384543
O       1.95815      7.73755     10.39443         0.838872      0.582091      0.806199
O      13.69806      7.77616     10.65946        -0.674004     -0.131507      0.569313
O       2.06869     11.76714      2.24233        -1.761431     -0.056154      2.437097
O       1.87244     11.56147     14.78712         0.106040      0.958745     -0.398529
O      14.31428     11.60594      2.17120        -1.560329     -0.699513      0.628500
O      13.65976     11.53526     14.66946         0.239467      0.922156      0.541096
O       1.93204     11.83674      6.41628        -0.099194     -1.919753      0.958389
O      13.83584     11.47115      6.12674        -0.652259     -0.265832      1.125142
O       1.95990     11.51735     10.02553        -0.877504      0.230354      1.195606
O      13.77016     11.62964     10.55095        -0.082282      0.032398     -0.693252
O       5.84401      4.01610      2.23448         0.694528     -0.462543      0.398286
O       6.00309      3.94190     15.03580        -1.644175     -0.842895     -1.420641
O       5.68515     15.53535      2.00282         0.737961      1.468243      1.826593
O       5.92548      0.20896     14.60153         0.238167      0.571653      0.193102
O       5.84184      3.74640      6.28922        -1.461871      0.714135      0.160500
O       5.62107      0.02770      6.47845         0.506835     -0.055645     -0.395325
O       5.85638      3.97342     10.50096        -0.328425     -1.506614      0.281132
O       5.79181      0.02174     10.29837        -0.133754      0.996598      0.105350
O       5.89662      7.92010      2.23122         0.262757     -0.583230     -0.564705
O       5.93645      7.93693     14.58487         0.495321     -0.993870      0.215607
O       5.51649      7.79333      6.46676         0.942166      2.060859      0.287061
O       5.90248      7.86473     10.65982        -0.655739      0.011956     -0.476150
O       6.05347     11.69760      2.49205        -0.483868      2.891244     -0.783944
O       5.83140     11.81048     14.40854         0.649397      0.173149      0.415204
O       5.92799     11.87273      5.99627         0.088078     -2.038163      1.204973
O       5.82559     11.92532     10.24929        -0.284972     -2.681346      0.712606
O       9.89962      3.95253      2.07052        -0.214485      0.060688      0.650739
O       9.94003      3.96112     14.41989         0.401575     -4.692738      1.286584
O      10.16474      0.02772      2.20443        -1.178502     -1.676279     -0.147253
O      10.02550     15.51721     14.36831        -0.082318      0.328027      1.318070
O       9.70529      3.93896      6.43762        -1.933333     -2.516594      0.850235
O       9.90648     15.55140      5.94200         0.676375      1.481737      0.926353
O       9.25704      3.92541     10.52096         1.853437     -0.829544     -0.965469
O      10.05292     15.54380     10.45223        -0.433684     -0.151762     -0.279932
O       9.74346      7.85886      2.18980        -0.507690     -0.216310      1.274305
O       9.52415      7.67678     14.56715         0.641719      1.613378     -1.135711
O       9.50028      7.81871      6.26892        -0.089479      0.311782      0.605957
O       9.88216      7.75186     10.74501        -0.485707     -0.004108      0.209981
O       9.82059     11.73199      1.65356         0.075530      0.022444      1.079447
O       9.75501     11.63486     14.71691         0.758849      1.005839      0.835218
O       9.42613     11.60438      6.50783         0.089820     -2.855590      0.191598
O       9.54353     11.66712     10.35563         0.253128      0.027321     -0.282946
