  # total energy = -7848.06485400 
CRSYTAL
PRIMVEC
    15.6080000000000005    0.0000000000000000    0.0000000000000000
     0.0000000000000000   15.6080000000000005    0.0000000000000000
     0.0000000000000000    0.0000000000000000   16.6239999999999988
PRESSURE
3.03462 3.66681 0.622822 -0.26641 -0.121836 0.204399
PRIMCOORD
320 1
Pb       4.21117      4.02124      4.26111        -0.048335     -0.270790     -0.177731
Pb       4.10228      3.66698     16.62363        -0.377257      0.831720      0.811940
Pb       4.23934      0.06222      4.16537        -0.098028      0.275527     -0.103768
Pb       3.94457      0.19090      0.36531        -0.304000      0.074212     -0.999223
Pb       0.35263      3.89419      4.20000        -0.798758      0.883868      0.017634
Pb       0.05798      3.86897      0.16964        -0.045988      0.898812      0.641391
Pb      15.47622      0.07912      4.15280        -0.568087     -0.506769      0.141748
Pb       0.03172      0.08726      0.03912         0.243275     -0.250260     -0.535491
Pb       4.01658      3.73469      8.18708        -0.434803      0.961915      0.061747
Pb       3.93217      0.01236      8.74679         0.897019      0.195792     -0.794911
Pb      15.55954      3.73470      8.31746        -0.420965      0.287330     -0.548628
Pb      15.24716     15.51950      8.09078         0.612701     -0.208629      0.871671
Pb       3.65799      3.83204     12.26790         1.796016      0.447971      1.216957
Pb       3.80841      0.38459     12.37940         0.424198     -1.092929      1.115000
Pb       0.25505      3.91174     12.43022        -2.350723     -0.627458      1.193601
Pb      15.22270     15.32875     11.93569         0.607227      1.142315      2.183892
Pb       3.94425      8.22604      4.15971        -0.317623     -1.254857      0.248605
Pb       4.01995      7.95798      0.01887        -1.267464     -0.401340     -0.283295
Pb       0.16391      7.67165      4.14511        -0.413178      0.300974      0.674209
Pb       0.09326      8.20288     16.49280         0.022740     -1.762519      0.248885
Pb       4.18317      7.92158      8.71823        -1.465631     -1.095673     -0.169529
Pb       0.02143      7.80029      8.56965         0.909638      0.403465     -0.592736
Pb       3.81050      7.50846     12.77903         0.024906      0.735957     -0.539862
Pb      15.58716      7.57257     12.51437         0.714133      0.270754      1.037778
Pb       3.68220     12.02438      4.65122         0.858237     -1.143073     -0.562653
Pb       3.46160     11.87098      0.32447         0.387581      0.137022     -0.817434
Pb       0.22823     11.61638      4.14131        -1.481654      0.147997      0.507304
Pb      15.40592     11.62097     16.37107         0.318052      0.960578      0.816537
Pb       3.76362     11.52181      8.32104         0.022712     -0.085555      0.284153
Pb      15.44766     11.59988      8.18885        -0.286988     -0.144656      0.206033
Pb       4.45051     11.86722     12.48171        -2.349391     -1.216024      0.696785
Pb      15.26685     11.79668     12.50579         0.871747      0.093523     -1.022590
Pb       8.17708      3.97764      3.62801        -2.335966     -1.272292      1.720156
Pb       7.83458      3.99606     16.42248        -0.621814     -1.394816      0.831459
Pb       8.37200     15.57652      4.12518        -1.592180      0.612066     -0.480497
Pb       7.61318     15.26979     16.55484         0.782088      1.919132     -0.825427
Pb       7.46734      4.05323      7.91215         2.377867     -1.078820      2.354494
Pb       7.68221      0.04950      8.37815        -0.111052     -0.478333     -0.062655
Pb       7.90434      3.91231     12.40770        -0.499389      0.058583      1.002937
Pb       8.21542      0.29885     12.71504        -2.458173     -1.198325      1.053400
Pb       7.53598      7.87136      4.06780         1.010463     -0.276836      0.596800
Pb       7.61673      7.91133      0.24194         0.515998     -0.939688     -1.124657
Pb       7.68069      8.06524      8.28057         0.565246     -1.258433      0.359878
Pb       7.70033      8.07745     12.51202        -0.229670     -2.318521      0.464626
Pb       7.67363     11.83364      4.02520         0.886119     -0.001012      0.782775
Pb       7.99595     12.14439     16.58820        -0.561706     -1.424631     -0.510864
Pb       7.59742     11.41140      7.95085         1.274800      1.330491      2.028487
Pb       7.91937     11.41286     12.75049         0.149033      1.531688     -0.971527
Pb      11.28349      3.77175      3.92974         2.171556     -0.511764      0.260088
Pb      11.83310      3.70516     16.53840         0.012112      0.900211      0.433400
Pb      11.67490     15.35764      4.33118         0.354967      0.084245     -0.732411
Pb      12.07645     15.60230      0.31255        -0.979172     -0.097685     -1.556071
Pb      11.54411      4.06656      8.59739         0.030709     -0.174350     -1.097280
Pb      11.59033      0.29302      8.12389         0.608792     -1.133948      0.336407
Pb      11.52851      3.41619     12.37903         0.905513      1.972049      1.423349
Pb      11.49820     15.23115     12.29757         0.883532     -0.190082      0.665662
Pb      11.13186      7.53570      4.21904         2.335972      0.667107     -0.820363
Pb      11.97993      7.92234     16.59031        -0.174797     -0.498238      0.760744
Pb      11.96146      7.55992      8.83148        -0.863641      0.726764     -0.998706
Pb      11.56084      7.69357     12.66638         0.253202      0.041411     -0.537612
Pb      11.34308     11.45582      3.87015         2.176569      0.414763      1.779372
Pb      11.91877     11.39992     16.22113        -0.938137      1.377303      1.707804
Pb      11.21963     11.67936      8.25213         1.430882      0.390035      0.498443
Pb      11.75816     11.56327     12.37542        -1.433450      0.328783     -1.047179
Ti       2.05522      1.81790      2.44797         0.009279      2.545732     -2.778693
Ti       1.84104      1.87882     14.75430         0.454638     -0.096278      1.057855
Ti       1.92205     13.78203      2.41862        -0.511191     -0.426729     -0.384103
Ti       1.78963     13.75913     14.27062         0.753162      0.833116      1.477352
Ti      13.71404      2.08718      2.15261        -0.099633      1.127299      0.667122
Ti      13.71606      1.97461     14.62011        -0.192586     -1.329935     -0.259722
Ti      13.63664     13.63167      2.02708        -0.711260     -1.786849      0.806409
Ti      13.56365     13.69039     14.54803         0.230456      1.728040     -0.393813
Ti       1.91253      1.93179      6.21338        -0.969381      1.118633      1.170924
Ti       1.91577     13.79140      6.62887        -1.779393     -1.189810     -0.085062
Ti      13.51097      1.83142      5.99906        -0.005194      3.075375      0.176549
Ti      13.40226     13.44390      6.29310         0.801358     -0.624062      0.218419
Ti       1.83861      1.89641     10.23814        -2.121079      0.390506     -0.629558
Ti       1.91879     13.70023     10.40123        -0.255382     -2.379171      3.247282
Ti      13.52783      1.88284     10.53552         2.441941      1.444303     -1.172659
Ti      13.41256     13.55604     10.22972        -1.296918     -0.673672     -0.812919
Ti       2.06361      5.84663      2.21012         0.116787     -0.048635     -1.264592
Ti       2.06151      5.77598     14.96758        -2.124730     -0.121070      0.144720
Ti      13.69553      6.09305      2.37958        -0.958923     -1.969441     -1.711219
Ti      13.71878      5.81935     14.90238         1.456490     -0.232571     -0.816692
Ti       2.20209      5.85736      6.65584        -1.959344      0.270972      0.588754
Ti      13.85606      5.73431      6.30832        -1.274482     -0.157933     -2.136970
Ti       2.05865      5.74560     10.53573        -1.902510      2.568864     -2.588024
Ti      13.70191      5.77168     10.83756        -1.018829     -2.221161     -0.077006
Ti       2.05582      9.80149      2.22511        -1.304299     -1.413699     -1.635892
Ti       2.08348     10.01425     14.64634         0.459334     -2.515456     -1.192199
Ti      13.72042      9.78040      2.36691        -1.454190      0.563593     -0.415901
Ti      13.74086      9.72478     14.44340        -0.600925     -1.104765      2.747407
Ti       1.76585      9.62731      6.45768        -0.148507      0.742600      1.040474
Ti      13.56632      9.48927      6.26184        -0.204351      1.167601     -0.865867
Ti       1.82993      9.85627     10.83906         0.502871      0.290139     -1.167975
Ti      13.64744      9.59700     10.62287        -1.910190      1.290623     -1.856493
Ti       6.09995      1.93604      2.22700        -0.382180      0.964807     -0.666841
Ti       5.80484      1.83123     14.70568         1.638070      0.758414     -0.990963
Ti       5.81890     13.68159      2.22674         0.702373     -0.892780      1.433811
Ti       5.57537     13.71558     14.61149         1.342506     -0.003902     -0.702123
Ti       5.69251      1.85618      6.24333         3.011304      0.996681     -0.960666
Ti       5.77853     13.64593      6.35244         1.645203     -0.292457      0.777561
Ti       5.92721      1.94107     10.49312         0.584517      0.808346     -0.292365
Ti       5.77467     13.71112     10.54565         2.152427     -0.149116     -0.528472
Ti       5.77091      5.89835      2.06849         2.812779     -1.446505      1.034359
Ti       5.76379      5.83448     14.74459         1.705982     -2.100061     -2.095235
Ti       6.05908      5.97879      6.18751        -2.396839     -0.934993      1.238464
Ti       5.90359      5.76321     10.62079         1.844763      0.933830     -0.091764
Ti       5.89617      9.90505      2.14371        -0.984203     -0.617755     -0.830768
Ti       5.78259      9.78837     14.74363         1.065251      0.759482     -0.656593
Ti       5.73687      9.63388      6.35441         1.364385      2.334316     -1.835541
Ti       5.68014      9.69753     10.69812         0.537665     -0.514771     -0.082957
Ti       9.84615      1.77003      1.81741        -0.634022      0.938544      0.033159
Ti       9.83116      1.91075     14.78551        -0.650196     -1.288877     -0.667659
Ti       9.85514     13.62077      2.03721         0.481304     -0.388811     -1.360482
Ti       9.80591     13.57543     14.57284        -0.173616      1.674458     -0.693480
Ti       9.57075      1.88729      6.41503        -1.042893      2.091384     -1.625006
Ti       9.55202     13.61549      6.33690         1.089663     -1.741187     -0.798219
Ti       9.77676      1.75928     10.40813        -1.656557      2.874470     -1.166681
Ti       9.38794     13.49838     10.55792         0.664071     -2.067330      0.358871
Ti       9.73978      5.86137      1.90392         1.301252     -0.394979      1.276938
Ti       9.77667      5.94005     14.75526        -1.077234     -1.232744     -1.272363
Ti       9.91198      5.78676      6.25164         0.113417     -1.130785      1.011630
Ti       9.84199      5.76373     10.69097        -1.370743      0.224264     -0.426016
Ti       9.58142      9.63429      2.03209         2.890281      0.031106     -0.711450
Ti       9.67914      9.64006     14.65681        -0.084592      0.566030     -0.880214
Ti       9.89172      9.50634      6.32729        -1.026316      1.649758      0.188965
Ti       9.59793      9.54864     10.37221         0.916306      1.530308      4.339037
O       1.86396      1.57629      0.49946         0.968386     -0.142468      0.577182
O       2.01748      2.33800     13.02351        -0.131123     -1.003177     -0.249018
O       2.03969     13.88276      0.69397        -0.022740     -0.217265     -0.478364
O       1.79282     13.93972     12.56569        -0.059374     -0.391660     -1.553490
O      13.65621      1.77910      0.31061         0.201197      0.136597      0.477894
O      13.69332      1.90290     12.84139        -0.034574     -0.403464     -0.220640
O      13.63572     13.56109      0.15934         0.288481     -0.286189      0.927987
O      13.42660     13.63905     12.64716         0.693824     -0.014343      0.298130
O       2.09650      2.14664      4.41384        -0.030745     -0.200361     -0.037212
O       1.85892     13.34048      4.92254        -0.189967      0.787185     -2.493227
O      13.46657      1.82746      4.17588         0.331497     -0.433446      1.023110
O      13.26576     13.71775      4.48349         1.050517     -0.076854     -0.404127
O       1.79457      1.97173      8.46282         0.513104     -0.458901      0.652388
O       1.74726     13.43270      8.72078         0.982175     -0.113415     -2.927680
O      13.58729      2.05105      8.71808        -0.398859     -1.299694      0.397969
O      13.14892     13.66500      8.45147         1.055483      0.477166      0.902131
O       2.12040      6.09889      0.45342         0.228441     -0.300371      0.406106
O       1.85093      5.51743     13.06753         0.868538      0.842857      0.308891
O      13.62828      6.09848      0.52623         0.852985      0.182872      0.332080
O      13.79470      5.86048     13.09050         0.254654     -0.068122     -0.606185
O       2.08890      5.79257      4.90111        -0.048923      0.204343     -2.286662
O      13.81761      5.94729      4.46550         0.192108     -1.082514      0.737448
O       1.95791      5.81126      8.65711        -0.591522     -0.003499      2.673365
O      13.27891      5.65922      8.99155         1.029240      0.430571     -0.314600
O       1.97924      9.95876      0.30339        -0.216273     -0.372127      1.200218
O       2.11382      9.78714     12.87607         0.076128      0.350224      0.553897
O      13.79982      9.88398      0.31224        -0.378433     -0.180591      0.235888
O      13.43794      9.60870     12.80392         0.019397      0.337009     -2.952431
O       1.99306      9.75716      4.67094         0.327266     -0.178237     -1.761370
O      13.51877      9.80601      4.47064         0.386828     -0.709151      0.812869
O       1.55416      9.83180      8.90698        -0.002568     -0.209397      1.175476
O      13.63948      9.62500      8.75422         0.766911     -0.925550      1.377601
O       5.87608      1.91569      0.34939         0.044542     -1.177959      0.761645
O       5.63524      1.72609     12.84420        -0.199409      0.669412     -0.280880
O       5.84457     13.65127      0.47931        -0.570211     -0.014587     -1.586224
O       5.83976     13.62941     12.82331        -1.115230      0.434215      0.032824
O       5.88722      2.10207      4.38662        -0.738812     -1.093430      0.748216
O       5.86182     13.47251      4.57273        -0.513306      0.162888     -0.126668
O       5.89302      1.70492      8.53467        -1.342939      0.727884      1.024446
O       5.87067     13.60593      8.70960        -0.698951      0.908979      0.408667
O       5.79065      5.86678      0.32204        -0.099593      0.259039     -1.293736
O       5.80336      5.63173     12.86182        -0.745566      0.338621      0.924472
O       5.92576      5.63131      4.50149        -0.034309      0.571210     -1.517698
O       6.12812      5.87271      8.72225        -0.840704      0.435736      0.872728
O       6.02233      9.60018      0.21293        -0.319464      0.518391      1.639792
O       5.65684      9.59890     12.82417         0.266025      0.155989     -0.032574
O       5.67614      9.88799      4.49813        -0.076620     -0.407921     -0.395590
O       5.85403      9.61469      8.78879        -0.220011     -0.225612     -1.314130
O       9.70963      1.55888      0.04170         0.429319      0.427603      1.017723
O       9.69420      2.05829     12.80692         0.359510     -0.558766     -0.664392
O       9.91936     13.56197      0.13662        -1.334938      0.297629      0.906908
O       9.63397     13.52711     12.72990         0.275741     -0.056633      0.655756
O       9.71043      1.98162      4.44658        -0.293549     -0.280916      0.326392
O       9.79506     13.44718      4.44066        -0.710970      1.879441      0.900116
O       9.64547      1.89240      8.52487         0.593389     -0.438445      1.040113
O       9.34623     13.43443      8.79059         0.461491      0.640074     -1.138487
O       9.77888      5.92707      0.21687         0.149209      0.488199     -2.279618
O       9.59731      5.60122     12.86368         1.269764      0.631283      2.045985
O       9.85221      5.53860      4.32292        -0.586224      1.194482      0.817983
O       9.83132      5.92075      8.77535         1.001178     -0.513971      0.573931
O       9.66140      9.52980      0.18806        -0.780478      0.513744      0.553608
O       9.53475      9.68998     12.64694         0.722899     -0.384378      2.453005
O       9.83313      9.47250      4.58210        -0.398871      0.905533     -1.660018
O       9.54090      9.76325      8.69079         0.292148     -0.738083     -3.590613
O       4.04267      1.66127      2.40733        -0.624920     -0.055110      0.076336
O       3.90509      1.97733     15.15432        -1.600313     -1.585585     -0.690128
O       3.85815     13.73475      2.75695         0.165570     -0.472022     -0.355816
O       3.77573     14.12698     14.78249        -0.936984     -1.423945      0.014404
O       0.04087      1.95100      2.49208        -0.186450     -0.894217      0.453365
O       0.07503      2.20810     15.24215        -1.007277     -1.397659     -1.236039
O      15.56667     13.71509      2.55647         0.121932     -0.546574      0.188038
O       0.00863     13.76021     14.66792        -1.607120     -2.455041      0.230611
O       3.84747      1.78447      6.41147         0.098246      0.181622      0.756189
O       3.84668     13.45990      6.62234        -0.088863      0.936976      0.563330
O      15.58538      2.11640      6.10006         0.197212     -1.006741      0.354960
O      15.43661     13.58162      6.57281         0.535037      0.021007      0.773973
O       3.73039      2.03288     10.71946        -0.369887     -0.380282     -1.039444
O       3.88485     13.41482     10.75543        -1.097284      1.001933     -1.014745
O      15.53970      1.93348     10.65831         0.939438     -1.194859     -0.015758
O      15.30367     13.74734     10.36225         0.968031     -0.605006      0.035452
O       4.14513      5.66676      2.62597        -3.433265      0.457763     -0.128111
O       3.93255      5.81458     15.00920        -0.916151     -0.457584      0.009032
O       0.19337      6.06125      2.61801         0.112122     -1.159737     -0.695551
O       0.03633      5.87491     15.36174         0.301230      0.403048     -0.805731
O       3.92426      6.05984      6.92118         2.323858     -0.522270     -0.487019
O       0.03459      5.49734      6.59343        -0.886242      0.859323      0.550462
O       3.83331      5.92502     10.69019         0.633301     -1.349925      0.453173
O       0.02016      5.87654     10.92246        -0.993830      0.232925     -0.365261
O       3.86647      9.81288      2.26453         1.756122     -0.086711      0.234383
O       4.03606      9.94198     15.07117        -2.230462     -0.706288      0.352371
O      15.50704      9.76769      2.45143         2.560138      0.046640      0.258284
O       0.04446      9.98873     14.74355         0.075490     -0.862769     -0.090940
O       4.01625      9.36828      6.70128        -2.068304      1.092609      0.353087
O      15.49459      9.74930      6.59112        -0.083647      0.102816     -0.046555
O       3.74272      9.77470     10.58992         0.240525      0.107323      0.085115
O      15.42554      9.71285     11.24400         0.277942     -0.344109     -0.976205
O       7.93406      1.74901      2.29506         0.304451      0.017107      0.119245
O       7.80366      1.78418     14.77218        -0.382723      0.232979      0.292712
O       7.86450     13.65578      2.37516        -0.012018     -0.614555     -0.274915
O       7.69577     13.63326     14.72024         0.701551     -0.293033      1.876482
O       7.73893      2.15094      6.32782        -0.290794     -0.365853      0.825793
O       7.65546     13.37285      6.60700         0.583745      1.112758     -0.603443
O       7.70728      1.95669     10.58483         0.720356     -0.541615      0.304488
O       7.58515     13.66994     11.02006         0.098105      0.171692     -0.876286
O       7.84685      5.77861      2.29657        -0.441464      0.587989     -0.508809
O       7.84852      5.80194     15.13426         0.239862      0.988755     -1.039241
O       7.78143      5.69943      6.40518         1.880170      0.704451      0.044792
O       7.77644      5.77098     11.13598        -0.359483      0.679688     -1.719960
O       7.70154      9.74097      2.64427         0.379175     -0.090612     -0.820584
O       7.78817      9.55991     14.70039         0.462584      0.072489      0.561899
O       7.76384      9.69489      6.38675         0.166023      0.221749      0.979937
O       7.60459      9.39063     10.70604         1.239188      0.312288     -0.345833
O      11.64577      1.84545      2.29699         0.695741      0.807524     -0.863140
O      11.82548      1.76678     14.95241        -1.227018      1.013202     -0.177183
O      11.68658     13.28840      2.17456         0.212656      1.738705      0.210863
O      11.71532     13.47512     14.71191        -0.622799      0.267051     -0.007698
O      11.44664      1.66795      6.24376         2.448932     -0.192176      0.808919
O      11.59048     13.59090      6.49659        -2.987936      2.021135      0.425440
O      11.66952      1.80805     10.70355        -1.827674      0.260670     -0.303803
O      11.32644     13.44307     10.74031         1.337786      0.568490     -0.036635
O      11.73726      5.67710      2.25458        -0.584726      0.969416      0.981209
O      11.93429      6.02981     15.18940        -2.958042     -1.230585     -0.687175
O      11.76199      5.84967      6.36543        -0.689926     -0.005940      0.668664
O      11.79477      5.63836     11.28233        -1.486364      0.233446     -1.161156
O      11.42533      9.55337      2.31597        -0.213183      0.494126     -0.012271
O      11.71468      9.63265     14.78352        -0.497378      0.834265     -0.095622
O      11.74459      9.40271      6.63512        -1.164040      0.362626      0.412743
O      11.59799      9.65246     10.73604         0.438496     -0.229540      0.012304
O       2.08217      3.88847      2.22200        -0.320945      0.096729      0.984502
O       1.89366      3.92866     15.45128         1.447994      0.196567     -1.099920
O       1.90492      0.04902      2.78867         0.149244     -1.946202      0.656113
O       1.37072     15.60150     14.61913         2.085369      2.477579      0.742955
O      13.88140      3.90037      2.18509        -0.808787     -0.895110      0.594916
O      13.62133      3.79550     14.96206        -0.032205      1.377262      0.485406
O      13.40773     15.42279      2.25822         0.770373      0.417336      0.437967
O      13.62674     15.51013     14.80402         0.532873      0.541237      0.367550
O       1.96289      3.82350      6.84619         1.262189     -0.293873     -0.870307
O       1.71532      0.01714      6.52441         0.533719     -0.380595      0.215073
O      13.57340      3.61843      6.62429        -0.490357      1.006649     -0.574332
O      13.73892      0.04220      6.48933        -1.240000      0.091098     -0.471101
O       1.58595      3.92925     10.63151         2.093213     -1.119472     -0.249464
O       1.83896     15.58541     10.25070         0.820335      0.375515      0.965955
O      13.68019      3.74787     10.88400        -0.451750      0.500764     -0.059466
O      13.28549     15.40926     10.62721         0.309764      1.647011     -0.072821
O       2.16866      7.81576      2.50066        -0.190949      0.923175      0.447171
O       2.17040      7.91600     14.97070        -0.406271     -0.243132      0.030329
O      13.74573      7.88307      2.64128        -0.457304     -0.414456     -0.318678
O      13.60734      7.89018     14.92698         1.594892      0.348099      0.076224
O       1.87621      7.93490      7.11919        -0.513067     -1.926705     -0.861677
O      13.79494      7.65884      6.45988         0.401508     -0.460304      1.058972
O       1.85730      7.76363     11.15025         0.177518     -0.365748     -1.009824
O      13.38736      7.64191     10.92466         1.126121      1.028293     -0.502716
O       1.99009     11.63220      2.42852        -0.302142      1.795519      0.875483
O       1.96707     11.79368     14.96491         0.397449      2.013783     -0.107864
O      13.41575     11.57017      2.59217         1.311344      0.917606     -0.776738
O      13.64228     11.72523     14.60875         0.361610     -1.278814      0.690777
O       1.84964     11.50899      6.73317         1.044840      0.554751      0.598153
O      13.24218     11.69170      6.73056         1.315593     -1.348324     -0.604548
O       1.68241     11.77472     11.07191        -0.044742     -0.211434     -0.964261
O      13.48972     11.68843     10.61675         0.399404     -1.088938      0.923025
O       6.06668      3.78932      2.32011        -0.660623      0.035766      0.050305
O       5.84259      3.71415     14.94887         0.136466      1.275984      0.327232
O       6.10527     15.38180      2.63763        -1.090554      2.482267      0.127130
O       5.86996     15.54849     14.89996         0.011338     -0.269495      0.876069
O       5.73097      3.96406      6.55562        -1.696495     -0.877018     -0.100349
O       6.09283      0.06877      6.51064        -0.963635     -1.786365     -0.410618
O       5.86592      3.82478     10.74304        -0.942684     -0.315768     -0.381542
O       5.62181      0.04428     10.77339        -0.797541     -0.840845     -0.891453
O       5.85754      7.74539      2.43931        -0.105836      1.396683     -0.197388
O       5.77116      7.60449     14.76400        -0.066858      2.531503      0.819215
O       6.07177      7.83549      6.20384        -0.257433     -1.105224      0.762523
O       5.64824      7.66366     10.84630        -0.065350      0.221443      0.053475
O       5.95973     11.65656      2.34612        -0.508827      0.751465     -0.181089
O       5.84296     11.64555     14.73917         0.161699      0.694835      0.322907
O       5.80612     11.65584      6.69905        -2.000272     -0.368818     -0.723131
O       5.98185     11.50195     10.80684        -0.605667      1.366631      0.155051
O       9.78327      3.84275      1.85588        -0.164484     -0.585510      1.215690
O       9.63754      3.74805     14.99830         1.506347      1.212557      0.055940
O       9.90311     15.57386      2.20542        -0.203253     -1.686496      0.944616
O       9.65847     15.53899     14.55059         0.631174     -0.666521      0.260341
O       9.77911      4.00218      6.66475         0.312914     -0.920746     -0.064816
O       9.36250     15.58434      6.65336         0.602030     -0.803876     -0.474421
O       9.64790      3.88499     10.68989         0.946727     -1.632063     -0.018671
O       9.56933      0.04742     10.76854         0.444034     -1.580632     -0.558331
O       9.52327      7.71493      2.38317        -0.013232      0.855767     -0.006185
O       9.93450      7.76469     14.65268        -0.650025     -0.135823      0.374710
O       9.58881      7.74931      6.38990         0.061659     -2.111171      0.601691
O       9.77997      7.62476     10.75767         0.237730      0.982994      0.404652
O       9.72096     11.78615      2.44306        -2.124459     -2.581202     -1.339980
O       9.67111     11.70025     14.86130        -0.226607     -2.011928     -0.208329
O       9.72549     11.72757      6.44953        -0.044145     -0.919163      0.685831
O       9.54792     11.45896     10.77930        -0.569108      0.944192     -0.012882
