  # total energy = -7842.26452829 
CRSYTAL
PRIMVEC
    15.6080000000000005    0.0000000000000000    0.0000000000000000
     0.0000000000000000   15.6080000000000005    0.0000000000000000
     0.0000000000000000    0.0000000000000000   16.6239999999999988
PRESSURE
1.97906 3.66993 -1.31745 0.313294 0.372602 -0.227038
PRIMCOORD
320 1
Pb       3.45894      3.70087      4.11725         0.036896      0.631902      0.915142
Pb       3.70825      3.90934      0.14673         0.950954      0.168545     -0.300985
Pb       3.56432     15.52522      4.01377         0.912526     -0.165007      0.753048
Pb       3.99680     15.60009     16.35914        -0.865396     -0.994098      1.381049
Pb      15.31911      3.92846      4.09348         1.097069     -0.560459      0.733798
Pb       0.12835      3.80951     16.32375        -0.334895      0.880271      0.391694
Pb       0.23289     15.40617      4.12399        -1.053521      1.713275      0.794272
Pb      15.47703     15.46645      0.09788         0.093474     -0.408757      0.006116
Pb       3.90667      4.04886      8.32647         0.638775     -0.121938     -0.397049
Pb       3.99311     15.54245      7.94935        -0.442999      0.763350      0.121490
Pb       0.17377      3.82931      8.60609        -0.646015      0.636575     -1.498473
Pb       0.37219      0.18763      8.78516        -0.547894     -0.455593     -1.470852
Pb       4.08512      3.86972     12.63844         0.454415      0.277388     -0.508474
Pb       3.84603     15.39591     12.57870         0.414599      0.929980     -0.003211
Pb      15.47608      3.99734     12.32112        -0.126732     -0.200056      1.427263
Pb      15.57962      0.12804     12.85246        -0.224976      0.123728     -0.033140
Pb       3.89223      7.39197      4.29571        -1.371375      0.689287     -0.967498
Pb       3.87192      7.73864      0.01929        -0.138406     -0.998932     -0.248119
Pb      15.42807      7.76808      4.52201        -0.090836      0.286726     -1.135714
Pb      15.34411      7.83313      0.16182         0.213320     -0.604690      0.376312
Pb       3.71875      7.67194      7.98040         1.023335      1.083123      1.957450
Pb      15.52259      7.71597      8.39475         0.500222      0.182063     -0.609052
Pb       4.12832      7.95122     12.12887        -0.634197     -1.396559      0.923196
Pb      15.43197      7.92038     12.58797         0.406164     -0.905427      0.511208
Pb       4.21460     11.44252      3.81279        -1.736306      2.369968      0.991369
Pb       4.21211     11.41324     16.31698        -1.375978      2.213451      1.664894
Pb      15.37280     11.93017      4.12543         0.922860     -2.308235      0.709088
Pb      15.60248     11.57277      0.22445         0.246601      0.798469     -0.605847
Pb       4.16922     11.59712      8.24517        -0.833259     -0.340973      0.496753
Pb       0.07948     11.65097      8.82096         0.479995     -0.492692     -1.379034
Pb       3.73849     11.50975     12.26707         0.390425     -0.082104      0.177555
Pb       0.05034     11.65728     12.57127        -0.342658     -0.234176      0.208708
Pb       7.63063      3.82121      4.41716        -0.207210     -0.005907     -0.974130
Pb       7.83660      3.97767      0.25941        -0.997421      0.737460     -0.147114
Pb       7.35489     15.58328      4.22969         0.464631      1.761961      0.064680
Pb       7.88930      0.10615      0.24649        -0.558242     -1.445969     -0.284108
Pb       8.11837      3.82073      8.68088        -0.429402      0.512699     -0.682418
Pb       7.76679      0.07668      8.32131         0.314730      0.146018     -0.642716
Pb       7.70363      3.62609     12.69526         0.597991      0.371905     -0.608074
Pb       7.77396      0.03551     12.30027         0.526227     -0.494028      0.868131
Pb       8.04575      7.75988      4.18204        -1.032711      0.827273     -0.615560
Pb       7.92903      7.63406     16.49086        -0.645910     -0.057761      0.710179
Pb       7.77175      7.60185      8.13432        -0.227410      0.689031      0.307411
Pb       7.85538      7.58481     12.25228         0.243191      1.308482      0.728212
Pb       7.92803     11.64821      4.31879        -0.928203     -1.629415     -0.359219
Pb       7.76203     11.57431      0.03615         0.537920      0.126314      0.197901
Pb       8.03088     11.79214      8.56306        -0.221575     -0.762615     -0.316261
Pb       7.31594     11.55334     12.35706         1.477751     -0.006383      0.049035
Pb      11.63970      3.93740      4.26603         0.322449     -0.591921     -0.255855
Pb      11.53259      3.79545      0.17412         0.266735      1.077784     -0.394080
Pb      11.41142      0.22043      3.88781         2.385773      0.324891      1.389394
Pb      11.30988     15.53997     16.42792         1.756374     -0.871857      1.281216
Pb      11.59597      3.54032      8.24387        -0.315415      0.337847     -0.298440
Pb      11.64127     15.38411      8.55170        -0.778843      0.497576     -0.228222
Pb      11.71962      4.20810     12.45377        -0.442748     -1.023194      0.967411
Pb      11.85363      0.15023     12.78903        -0.092695      0.172928     -0.475007
Pb      11.89093      8.08507      3.90573         0.518928     -0.606837      0.159995
Pb      11.22265      7.92310     16.57003         1.088366     -0.600746      1.079002
Pb      11.34857      7.81624      8.01085         0.576953     -0.660768      0.829506
Pb      11.73076      7.97031     12.35558        -0.780361     -0.619239      0.449301
Pb      11.61717     12.17270      4.29296         0.879145     -2.424713      0.940518
Pb      11.48970     11.88938      0.24069         0.620655      0.157921      0.581470
Pb      12.05579     11.82753      8.52435        -1.303001     -0.203454     -0.656954
Pb      11.98582     12.00675     12.75201        -0.020695     -0.316504     -1.365543
Ti       1.84687      1.77803      2.09604         0.505756      0.436420      0.099807
Ti       2.01384      1.86333     14.57969        -1.118980     -0.454614      0.393121
Ti       1.93176     13.33587      2.25035         2.055343     -0.111814     -1.186912
Ti       2.05640     13.51722     14.52208        -2.292736      0.414604      3.310229
Ti      13.71793      1.92593      2.09445        -0.390893     -1.182075      0.002002
Ti      13.57700      2.01205     14.77060         0.717899     -0.386940     -1.447368
Ti      13.58580     13.69378      2.47509         0.296234      1.081910     -4.133684
Ti      13.78775     13.48356     14.80797         0.473104     -0.172740      1.843978
Ti       1.90665      1.97787      6.57217         0.220837     -0.606477     -3.177141
Ti       1.96204     13.26081      6.28376        -1.014753      4.817490      0.036134
Ti      13.73925      1.87827      6.31998        -0.412545     -0.058834     -2.148967
Ti      13.67661     13.71775      6.49019         0.609226     -1.202020     -1.323779
Ti       2.08948      1.99541     10.54647         0.473010     -2.767275      0.536604
Ti       2.17424     13.74496     10.27495        -0.972828     -1.214790      0.068208
Ti      13.65896      1.89257     10.44425        -0.755153      2.498497      0.561545
Ti      13.86888     13.75807     10.37365        -0.361090      0.031018      3.538499
Ti       1.72549      5.76686      1.98195         0.182830      0.860082      0.608927
Ti       2.06934      5.84644     14.44629        -2.064782      0.610308      2.486242
Ti      13.62617      5.73849      2.15518        -0.828874      4.456757     -1.267820
Ti      13.45214      5.83367     14.81631         0.523843     -0.044453     -1.146895
Ti       1.80266      5.87526      6.50139         0.169352     -1.557545     -2.586674
Ti      13.51405      5.70661      6.26097         0.517175      1.785357      3.119404
Ti       2.06810      5.58566     10.56587         1.302852      2.457349     -0.491354
Ti      13.63305      5.74140     10.35465        -0.337454      0.626989     -0.887752
Ti       1.99102      9.50111      2.02408        -1.894574      2.033586      4.744965
Ti       2.02599      9.68561     14.75722        -1.392879     -0.225151     -1.466851
Ti      13.63534      9.86120      1.94405         0.120155     -2.831834      1.285784
Ti      13.71143      9.52312     14.66671        -0.015440      2.987725      0.931270
Ti       1.75837      9.81456      6.17048        -0.340579     -3.022971      0.155175
Ti      13.60474      9.61495      6.46563        -0.028752      1.552127     -2.433851
Ti       1.84885      9.69128     10.60879         0.552017     -1.269588     -2.809760
Ti      13.57760      9.53597     10.34307         0.173896      1.472634      0.227455
Ti       5.65659      1.98383      2.09936         1.503542      0.676482      0.213903
Ti       5.99348      1.84207     14.75311        -0.439559      1.071706     -0.190713
Ti       5.85085     13.64234      2.00577        -2.027024     -0.310412      0.009465
Ti       5.93216     13.57609     14.58157         0.597479      0.379466      0.157887
Ti       5.85873      2.17024      6.37826        -1.174791     -0.999683     -1.092180
Ti       5.80909     13.63150      6.22436         0.103588     -0.202016      0.231836
Ti       5.85136      1.84464     10.28826        -0.437617      1.668768      0.457747
Ti       5.78522     13.78188     10.26579         1.147172     -1.497350     -0.665990
Ti       5.73534      5.90086      2.17938         0.310148     -1.048279     -1.137948
Ti       5.79904      5.83706     14.40982         1.097101     -0.989059     -0.485184
Ti       5.81232      5.88668      6.17803         1.004263     -0.466336      0.911638
Ti       6.08756      5.83863     10.40682        -0.776019     -0.651862     -0.656946
Ti       5.82836      9.62388      1.87178         3.210297     -1.044308      3.047137
Ti       6.00966      9.50318     14.66539         1.145110      0.510392     -2.441041
Ti       5.68097      9.77518      6.24636         2.989744     -0.773567      0.441390
Ti       5.83994      9.71963     10.27653         1.172290     -0.460300      0.411155
Ti       9.60495      2.01588      2.11369        -0.527363      1.441429      2.351680
Ti       9.72286      1.96946     14.70524         1.158011      1.649868     -3.099425
Ti       9.55915     13.75849      2.55309        -0.835490     -0.937050     -5.430486
Ti       9.72486     13.48193     14.60084        -1.466683      2.542793     -2.715576
Ti       9.64809      1.76611      6.17249         0.952268      1.558677      2.002665
Ti       9.72195     13.66440      6.42532         0.691145     -0.323608      1.013100
Ti       9.79997      1.84918     10.66034         0.387514     -0.046757      0.098678
Ti       9.68808     13.61869     10.66801         1.311073      0.239975     -0.027429
Ti       9.64262      5.84528      2.29362         0.897604      1.313908     -1.430219
Ti       9.63832      5.98484     14.43963         0.923823     -2.506907     -1.083154
Ti       9.68593      5.84059      6.10557         0.718781     -0.557227     -0.120288
Ti       9.93302      5.81140     10.43905        -2.597195      1.304418     -0.078548
Ti       9.82416      9.77162      2.29831        -1.456413     -0.275047     -1.428659
Ti       9.89937      9.87708     14.48579        -1.114512     -1.413636     -1.256005
Ti       9.80917      9.79209      6.24128        -1.783815      0.733017     -0.389602
Ti       9.82829      9.77628     10.49536        -1.271296     -0.746406     -0.475501
O       1.79415      1.96923      0.30213         1.344192     -0.614917     -0.227858
O       1.92340      1.59908     12.73404         0.661971      0.506855      0.279251
O       2.32762     13.44899      0.53842        -1.132716     -0.364372     -0.424446
O       1.81137     13.69538     12.81049         0.199772     -0.358903     -2.202933
O      13.92638      2.00811      0.25380        -1.070790      0.532894      1.018234
O      13.83840      1.81081     12.80845        -0.231826      0.432628      0.739702
O      13.51572     13.70201      0.52500        -0.100806     -0.418405     -0.744125
O      13.76188     13.91320     13.02414        -0.159844     -1.007872     -0.326908
O       1.97007      1.75536      4.48626        -0.585944      1.024469      0.707340
O       1.74757     13.79168      4.46248         1.089141     -1.008231      0.640687
O      13.68533      2.07629      4.44782         0.013210     -0.405225      0.116353
O      13.82708     13.60855      4.48460        -0.888314     -0.325531      0.118679
O       1.96488      2.01668      8.71890         0.009076      0.209116     -0.925567
O       2.25334     13.47643      8.49146        -0.219181      0.372660      0.009347
O      13.32042      1.96876      8.59900         1.006823     -0.111218      0.407154
O      13.72136     13.61026      8.67668        -0.626909      0.797272     -3.077890
O       1.68246      5.88302      0.14877         1.374179     -0.199213      1.296083
O       1.91252      5.68540     12.76030         0.579241     -0.210006     -2.464279
O      13.96858      5.93134      0.37551        -1.678608     -0.787993     -1.312100
O      13.61798      6.12090     12.97685        -0.060490     -0.993611     -0.933770
O       1.64067      5.83683      4.60952         1.118726     -0.116563      0.832371
O      13.40531      6.01444      4.57480         0.729609     -0.011280     -3.671371
O       2.05501      5.47762      8.62112        -0.494153      1.059905      2.681975
O      13.68812      5.61782      8.61474        -0.014722      0.279846      0.138996
O       2.02136      9.69553      0.37164         0.779050     -0.231786     -4.865234
O       1.98163      9.82724     12.72332        -0.329411      0.373394      0.485654
O      13.45901      9.60171      0.17966         0.658712      0.463489     -0.383171
O      13.67140      9.80117     12.85381         0.754660     -0.297615     -1.940389
O       1.87974      9.58883      4.40364        -0.158819     -0.347301      1.357010
O      13.81854      9.61276      4.46612        -0.357804      0.194952      0.916869
O       1.71159      9.97456      8.71646         0.706005     -0.259473     -0.129454
O      13.33530      9.89426      8.59125         0.957058     -0.879081     -0.180662
O       5.61246      2.17842      0.27347         0.385521     -0.748103     -0.225721
O       6.22076      1.68099     12.96959        -0.352971      1.160557     -0.704431
O       5.65827     13.44169      0.24969        -0.123549      0.846450     -1.583716
O       5.81889     13.53369     12.74565         0.281731      0.445252      1.409734
O       6.03416      1.99471      4.41303         0.485708      0.243695      0.530536
O       6.03574     13.84884      4.38013        -0.741497     -1.452248      1.141438
O       5.80640      1.94933      8.49633         0.453668      0.051620      0.892277
O       5.49386     13.74007      8.37358         1.304134     -0.054347      1.416247
O       5.88438      5.95947      0.30954        -0.656694      0.302379     -0.399975
O       5.85815      6.01007     12.54021         0.311973     -1.045752      1.242130
O       5.40735      5.69976      4.39451         1.473642      0.234610      0.366048
O       6.05568      5.85032      8.51219        -0.287558     -0.261997      1.179447
O       6.01550      9.51950      0.08391        -0.469915      0.043369      0.219312
O       5.96990      9.62515     12.74706        -1.090497      0.317251      0.046035
O       5.79124      9.98704      4.50396         0.537035     -1.021301     -0.839813
O       5.98145      9.78583      8.55734        -0.639549     -0.057427     -0.891304
O       9.71819      2.19304      0.36884         0.766658     -0.638050     -2.968028
O       9.54190      1.88814     12.72511        -0.052956     -0.122078      0.573538
O       9.82692     13.94022      0.71088         1.131301     -0.684076     -1.876732
O       9.55227     13.66571     12.69266         0.664360     -0.975847      2.014253
O       9.44472      2.25376      4.48149         0.694884     -0.511517     -1.302030
O       9.79854     13.63287      4.31383        -0.915525      0.303439      3.818884
O       9.90790      1.64675      8.59254         0.004011      0.870560      1.173139
O      10.00874     13.74538      8.69080        -1.427247      0.101049     -1.170559
O       9.51074      6.07406      0.15193         0.888056     -1.473286      0.459837
O       9.89171      5.92670     12.53360        -0.572446     -0.129000      1.660309
O       9.77603      5.82648      4.22299        -0.424924     -0.244261      0.924472
O       9.52793      6.10248      8.65520         0.958407     -0.802213     -0.844047
O       9.60272      9.86350      0.32778         1.195513     -0.781015      0.145730
O       9.84599      9.87566     12.64019         0.445916      0.038136      1.401617
O       9.85166      9.89065      4.38736        -0.650740     -0.086000      0.866736
O       9.72187      9.48967      8.60667         0.552034      1.241075     -0.023875
O       3.88785      2.07290      2.61062        -0.931131     -0.545858     -1.364655
O       4.17339      1.65943     14.66640        -3.138344      0.590212     -0.078487
O       3.85868     13.65254      2.61079         0.982071     -0.635883      0.071198
O       3.80780     13.87826     14.60897         2.703862     -0.752149      0.324157
O       0.10210      1.88357      2.37854        -3.116938      0.486514      0.403555
O       0.12600      2.07888     14.73452        -0.385762     -0.719621     -0.294989
O      15.58424     13.55767      2.42724        -0.400547     -0.075629     -0.187506
O      15.59727     13.43105     15.17318        -0.247617      1.098901     -0.571902
O       4.01053      1.98611      6.21211        -0.788002     -0.020508      1.550721
O       3.89370     13.88781      6.35621         0.728476     -0.848180     -0.747244
O      15.53007      1.94135      6.57840        -0.090365      0.511720      0.786944
O       0.17576     13.30469      6.57783        -1.392766      0.776304      0.333367
O       3.98958      1.74717     10.62890         0.947934      0.593974      0.518696
O       4.00206     14.00060     10.73869        -0.874862     -1.581874      0.059510
O       0.07525      2.24510     10.59687        -1.025260     -0.957781     -0.211396
O       0.18288     13.81904     10.38099        -0.583544     -0.348544      0.410055
O       3.85178      5.82075      2.27264        -1.600121     -0.484040     -0.305394
O       3.97871      5.46529     14.62654        -1.346400      1.254416      0.505583
O      15.47589      6.16551      2.37960         0.961767     -1.286411      0.674501
O       0.11177      5.63684     14.70624         0.216517      0.069437     -0.168170
O       3.77353      5.76977      6.69735         1.092031      0.801607     -0.580641
O       0.07363      5.84255      6.76009        -2.373562      0.245190      0.479230
O       3.96156      5.68756     10.84521        -0.867226      0.477071     -0.761007
O       0.18214      5.73453     10.75662        -1.674627     -0.189058     -0.531663
O       4.18674     10.28023      1.99691        -2.388028     -2.229010     -0.794923
O       3.88438      9.61211     15.04417         1.377841     -0.161531     -1.016663
O       0.08881      9.81881      1.97172        -0.950072     -0.907923      0.538157
O       0.04666      9.60587     14.78990         1.700138      0.066149      0.284466
O       3.89781      9.69791      6.60109        -1.282807      0.026174     -0.111865
O      15.41955      9.73838      6.63997         3.064915     -0.033072     -0.072036
O       3.78613      9.62736     10.58667         2.565166      1.135148      0.143200
O      15.53404      9.81621     10.46732        -1.508098     -0.037223      1.601491
O       7.75588      2.10725      2.17039        -0.243140     -0.947659     -0.144675
O       8.01627      1.76289     14.98903        -3.121550      0.348599      0.757394
O       7.70559     13.90405      2.02721         1.338963      0.075892      1.648746
O       7.88865     13.53213     15.21331        -0.763897      0.189808     -0.999770
O       7.86866      1.93198      6.71899        -0.145268      0.674458     -0.105968
O       7.83619     13.72123      6.62762         0.148383     -0.188611     -0.193041
O       7.86057      1.90257     10.72571        -0.903581      0.306404     -0.802304
O       7.62842     13.47609     10.55929         0.696769      1.406834     -0.527601
O       7.69043      6.20671      2.12534         0.895501     -0.423560      1.445056
O       7.80188      5.98028     14.59047        -0.900732     -0.389849      0.188681
O       7.74882      5.85068      6.24265        -1.984872      0.733799     -0.576879
O       7.95227      6.04561     10.66218        -1.597554     -0.957469     -0.402077
O       7.87660      9.47963      2.52115        -1.331558      0.934481     -0.363575
O       7.93132      9.70746     14.73627        -0.021806     -0.276750      0.050686
O       7.84480      9.89979      6.34549         1.295760     -0.234601     -0.137083
O       7.80910      9.81086     10.61259         0.043755     -0.291680      0.055321
O      11.75890      2.06863      2.30585        -0.443912     -0.137985      0.063690
O      11.71180      2.12081     14.42403         0.105539     -1.089694      1.527627
O      11.70105     13.72197      2.65192        -0.402746      0.195015     -0.169529
O      11.64350     13.51487     14.87199         0.558525      0.395843      0.187458
O      11.65106      2.07343      6.32851        -0.375650      0.647828      0.386207
O      11.70364     13.79733      6.48004         0.607422     -0.443236      0.270147
O      11.63647      2.18143     11.02964         1.023233     -1.511595     -0.930295
O      11.63970     13.71988     10.76331         1.381875     -0.029148      0.286988
O      11.54628      6.13581      2.22782         1.841533     -2.649448     -0.383264
O      11.50618      5.83346     14.79796         3.010176     -0.215598      0.996312
O      11.67492      5.64670      6.56058        -1.200371      0.213606     -0.062291
O      11.66867      5.75692     10.72591         3.773810      0.654989     -0.610077
O      11.68255      9.95046      2.41741         0.664121     -0.216444     -0.373114
O      11.87204      9.58276     14.75263        -3.133631      0.734247     -0.169173
O      11.70555      9.60365      6.25120        -1.356558     -0.399440      1.155838
O      11.78890      9.88673     10.69316        -0.663953      0.418369      0.355781
O       1.70546      3.91033      2.34836         0.802073      0.503334     -0.141206
O       2.13528      3.65450     15.00221         0.550083      0.615213     -1.209069
O       1.84752     15.51786      2.36005         0.501739      0.410813     -0.072413
O       1.63451     15.33205     15.05691         1.030706      1.911792     -0.810706
O      13.43225      3.98452      2.45007         0.901610     -1.358597     -0.002745
O      13.50436      3.94823     14.99005         0.341852      0.058114      0.111623
O      13.65370     15.59690      2.22812        -0.082570      1.321690      1.129805
O      13.60302      0.16409     15.10759         0.152433     -0.892522     -0.632749
O       1.87565      3.83354      6.83182         0.202442      0.218509     -0.948527
O       1.68175      0.19832      6.66651         0.904433     -1.715831      1.026407
O      13.91976      4.00546      6.15903        -0.568029     -2.539965      0.937386
O      13.66316     15.49430      6.26389         0.475421      1.099454      1.226641
O       2.26246      3.69846     10.93910        -0.673790      2.722356      0.098907
O       2.06100     15.60046     10.44261        -0.631860      0.162324      0.175927
O      13.56395      3.97692     10.66184         0.735944     -1.494347      0.990723
O      13.77782      0.19400     10.80524        -0.198911     -2.446761     -0.629314
O       2.11873      7.69475      2.38142         0.086999      0.242855     -0.460302
O       2.25220      7.78025     14.67904        -0.680980     -1.025573      0.194960
O      13.62728      7.89580      2.25084        -0.376866      0.290778      0.632041
O      13.85697      7.76758     14.78682        -0.129184     -1.818355      0.835613
O       1.80115      7.82432      6.79264         0.119286      0.260908     -0.470746
O      13.73074      7.70974      6.59272        -0.077389      0.293803      0.773059
O       1.91921      7.84224     10.53037        -0.131806     -1.130315      0.578339
O      13.49154      7.74648     10.32814         0.562622     -0.128390      1.033410
O       1.93856     11.47509      2.59204         0.091217      1.049515     -0.198061
O       1.97690     11.64605     14.93782         0.476590     -0.681687     -0.592345
O      13.61743     11.64577      2.11917         0.330248      2.231841      1.240920
O      13.92020     11.59875     14.97736        -1.491147      0.831355     -0.815995
O       2.07621     11.56311      6.24919         0.906500     -0.722715      0.203328
O      13.61019     11.63901      6.65637        -0.897058      1.208831      0.002049
O       2.21114     11.70409     10.60778        -0.786714      1.657055      0.764359
O      13.84324     11.97485     10.78638        -0.317681     -0.495986      0.316055
O       5.88073      3.97542      2.23125         0.196036     -0.222904      0.435894
O       5.81484      3.91989     14.73112         1.673803     -1.631709     -0.403718
O       5.71303      0.01864      2.06040         0.462684      1.059788      0.556174
O       5.84823     15.51245     14.97122         1.615594     -1.458510      0.136785
O       5.69812      4.06354      6.56019         0.974935     -1.903220     -0.172655
O       6.04117      0.20869      6.55133        -0.356357     -2.171071     -0.247648
O       6.01095      3.95453     10.69874        -0.106750     -1.612781      0.051961
O       5.98102     15.60042     10.64032         0.362126      0.408103     -0.385253
O       5.47938      7.84242      2.61590         0.554707      1.380862     -1.101894
O       5.80971      7.65969     14.51513        -0.518141      1.592360      1.501304
O       5.89998      7.78420      6.49132        -1.034697      0.473391     -0.553856
O       5.89048      7.76392     10.57340        -0.272352      1.019117     -0.086734
O       6.07227     11.76086      2.12989         0.605364     -0.918729      1.114204
O       6.06515     11.48596     14.73729        -1.066465      1.758010      0.331117
O       5.99702     11.65704      6.57628        -1.235655      2.456849     -0.182003
O       5.90903     11.73058     10.43834        -1.834587     -0.385912      0.247674
O       9.58446      3.95099      2.34575         0.569780      0.615849     -0.458238
O       9.69700      3.88781     14.61241        -0.313150     -0.675382      0.871519
O       9.77890      0.19916      2.39754        -0.777162     -0.937370      0.250192
O       9.76327     15.47171     14.75135         0.547917      0.536183      0.590634
O       9.35165      4.21466      6.67958         1.268324     -3.485109      0.309566
O       9.77252     15.59802      6.29492        -0.242881     -0.764674     -0.047420
O       9.77014      3.97370     10.64872        -0.685313     -1.727291     -0.612400
O       9.67409     15.53863     10.78036         0.190367      1.653676     -0.288589
O       9.97763      7.80317      2.30995        -1.546868      1.804949      0.531726
O       9.88217      7.74494     14.61239        -0.464465      3.052342      0.319631
O       9.46621      7.65553      6.27152         1.508802      2.961309      0.950996
O       9.96874      7.79362     10.69401         0.062968      2.199418      0.402844
O       9.61678     11.69912      2.37835        -0.162533      1.878557      0.445739
O       9.90203     11.68701     14.99028        -0.249656     -0.860156     -0.274913
O       9.96312     11.80568      6.62528        -0.703707     -0.660877     -0.602919
O       9.56846     11.81716     10.67476         0.781199     -2.200033     -0.687327
