  # total energy = -7841.09460793 
CRSYTAL
PRIMVEC
    15.6080000000000005    0.0000000000000000    0.0000000000000000
     0.0000000000000000   15.6080000000000005    0.0000000000000000
     0.0000000000000000    0.0000000000000000   16.6239999999999988
PRESSURE
2.00172 2.21184 -3.9804 0.086901 0.534081 0.117727
PRIMCOORD
320 1
Pb       4.19453      4.09029      4.28935        -0.773381     -0.083974     -0.661673
Pb       4.02386      4.00548      0.10350        -0.936469     -0.459496      1.260538
Pb       4.18930      0.15450      4.42873        -1.180573     -0.590293     -1.008974
Pb       3.73234     15.55142      0.31819         0.561432     -0.202775     -0.236922
Pb       0.33937      4.03320      4.31591        -0.404378      0.123747     -0.605750
Pb       0.04923      3.84651      0.31087         0.667828     -0.274690     -0.809037
Pb      15.30937     15.56525      4.48055         1.522551     -0.014816     -0.937356
Pb       0.28372     15.53540      0.04767        -0.055622      0.063798      0.136294
Pb       3.89936      3.67894      8.24632         0.356283     -0.433117      0.678237
Pb       3.83144      0.01279      8.64760         0.350278      0.026142     -1.011272
Pb      15.37743      3.96719      8.14583         0.766210     -0.266047     -0.050515
Pb      15.05605     15.53368      7.87879         2.154106      0.607199      1.811002
Pb       3.91223      3.92188     12.36633        -0.012095      0.385333     -0.571441
Pb       3.73100      0.23061     12.46829        -0.466684     -0.375498     -0.327587
Pb       0.15230      3.71605     12.74583         0.118667     -0.381823     -0.288322
Pb      15.39749     15.43200     12.12618         0.749819      1.401830      0.014162
Pb       3.75027      8.07324      4.25714        -0.299105     -0.400160     -0.973702
Pb       3.72163      8.05703      0.14254        -0.373839     -0.666275     -0.421626
Pb       0.07048      7.76889      4.15752         0.422133      0.544332      0.348171
Pb       0.18413      8.02791      0.06400         0.145978      0.235776     -0.430911
Pb       3.97076      7.85630      8.86142         1.125658      0.302297     -0.135633
Pb       0.06399      7.62224      8.62973        -0.351418      0.151363     -0.464548
Pb       3.74818      7.51895     12.91903         0.921854      0.437734     -1.059342
Pb       0.17685      7.37271     12.83034         0.387590      0.167199     -0.835343
Pb       3.64008     12.02780      4.71396         1.411415      0.150805     -0.933266
Pb       3.46137     11.91237      0.22148         0.176973      0.800605     -0.591659
Pb      15.58693     11.64556      4.65849         0.467987     -0.442364     -1.541127
Pb      15.53334     11.88358     16.49030         0.902668     -0.358157     -0.135124
Pb       3.65562     11.63397      8.64566         1.517994     -0.668007     -0.247233
Pb      15.37997     11.30665      8.15018        -0.172231      0.446605      0.781168
Pb       3.88595     11.87427     12.68275        -0.061789     -0.611026     -0.538459
Pb      15.28450     11.87906     12.42108         0.381627     -0.979755     -0.342608
Pb       7.76830      4.11686      3.96548        -0.145888     -0.906611      0.096071
Pb       7.81076      3.74642     16.51634        -0.289684      0.239356      0.456763
Pb       8.08547     15.58725      4.08413        -0.543451      1.258124      0.047858
Pb       7.63312      0.00912     16.59815        -0.207056      0.026832      1.131111
Pb       7.68310      4.01744      8.41523        -0.312790     -1.188663     -0.276356
Pb       7.71667      0.03280      8.33159        -0.019686      1.591010      0.250314
Pb       7.98942      3.92827     12.57887         0.231483     -1.059379     -0.499982
Pb       7.79794     15.54092     12.92385         0.580112      0.962202     -1.719662
Pb       7.65227      7.74760      4.02777        -0.198588      0.972382      0.231457
Pb       7.62020      7.90393      0.04569         0.278862      0.487979     -0.826375
Pb       7.85368      7.86058      8.33984        -0.274498      0.435314      0.234272
Pb       7.56048      7.75025     12.81145        -0.083086      0.010984     -0.514744
Pb       7.59806     11.94538      4.17181        -0.167335     -0.718138      0.485230
Pb       7.74123     11.59247      0.00263        -0.516587     -0.206462      0.996873
Pb       7.60782     11.69903      8.37461        -0.728166     -0.366097     -0.276368
Pb       8.16604     11.80608     12.90557        -1.457854     -0.458058     -0.990962
Pb      11.85798      3.79772      3.98092         0.123174      1.034273      0.111450
Pb      12.03936      3.78979     16.61071         0.142346     -0.103930      0.219113
Pb      11.97269     15.18727      4.33097        -1.308222      1.030040     -0.483294
Pb      12.37488     15.52177      0.45582        -1.022710      1.222220     -1.303500
Pb      11.63157      4.14846      8.54790        -0.220809     -0.573308     -0.874676
Pb      11.57213      0.26835      8.09927        -0.906963      0.110837      0.377293
Pb      11.76842      3.62934     12.73240        -0.679453     -0.024804     -0.536530
Pb      11.64145     15.23873     12.05707        -0.507084      1.413795      0.265062
Pb      11.38019      7.50412      4.25521        -0.195013      0.081664     -0.496410
Pb      12.15801      7.74817      0.07718        -0.949390      0.301051     -0.410524
Pb      11.93615      7.56868      8.80564        -1.208963      0.624457     -1.111539
Pb      11.54787      7.61625     12.67045        -0.045208      0.185425      0.004306
Pb      11.53188     11.53634      4.22568        -0.547667      0.172178     -0.145737
Pb      11.83456     11.56155     16.56370        -0.142148      0.277323      0.109968
Pb      11.34856     11.29802      8.24704         0.125126      0.665271      0.083781
Pb      11.43312     11.47602     12.16436         0.345560      0.207988     -0.152754
Ti       2.13194      1.92545      2.19231        -1.440963      0.934913      0.991016
Ti       1.92420      1.87828     14.67551        -1.183265     -0.193349     -0.379531
Ti       1.74351     13.82501      2.62645         2.201612      0.901692     -1.762627
Ti       1.93579     13.73707     14.10449        -0.307887      0.519639     -0.587405
Ti      13.97178      2.04604      2.24174         0.447582      0.118332     -0.839838
Ti      13.60034      1.69265     14.31782         1.995923     -0.235876      0.598189
Ti      13.62240     13.41013      2.05685         2.471285      1.277069      0.710997
Ti      13.49297     13.53085     14.46018         1.832926      1.754337      1.986990
Ti       1.87716      2.05840      6.13849         0.848994     -2.259395      0.505674
Ti       1.86765     13.73518      6.46793         1.490125      1.739074      0.225765
Ti      13.54718      2.08458      6.06692         0.697724      1.198857      0.433350
Ti      13.57614     13.39343      6.22916        -1.298871      1.169996      0.963509
Ti       1.89990      1.93936     10.25190        -0.856217      0.289458     -1.747581
Ti       1.81591     13.65835     10.28852         1.368210     -1.230438     -0.622680
Ti      13.66650      1.98398     10.25668        -0.377370     -0.716645      0.629216
Ti      13.45071     13.61752     10.16488        -0.072829     -0.738501     -2.716577
Ti       2.01640      5.86172      2.05494         1.898269     -0.036493      0.197634
Ti       2.05789      5.56461     14.71484        -1.435773      1.575053      0.463526
Ti      13.67800      5.87399      2.02743        -0.962042     -2.475690      1.040178
Ti      13.68287      5.72800     14.43451        -0.175571     -0.427972     -0.204113
Ti       2.07271      5.96245      6.34606         0.753487     -3.262118     -0.045063
Ti      13.38956      5.88716      6.17495         0.597104     -2.233929     -0.532863
Ti       2.07449      5.77617     10.14055         0.082339      0.020916      1.355568
Ti      13.81414      5.70650     10.41202        -0.424451     -0.019100      1.715954
Ti       1.87387      9.96349      2.01902        -0.924743     -0.746916      1.880509
Ti       1.86296      9.86244     14.38501         1.994450      0.297862      1.356480
Ti      13.64487      9.81719      2.20732         0.540051     -1.763801      0.530710
Ti      13.73635      9.64619     14.32079        -0.045281      0.071062      0.337930
Ti       1.98810      9.70199      6.51028        -1.867000     -0.068474      0.217458
Ti      13.45062      9.44570      6.07748         1.930175      2.387236      1.201149
Ti       1.67273      9.73949     10.59720         2.334437      1.103970      0.563803
Ti      13.50393      9.65561     10.40742         1.560812      0.598245     -0.474993
Ti       5.98672      1.98016      1.98458        -0.978741      0.110916      0.555741
Ti       5.73312      1.85512     14.48942        -0.016679      0.238019      0.708288
Ti       5.86828     13.74500      2.12213        -1.400160      0.272962      1.059370
Ti       5.95094     13.66510     14.57489        -2.447940     -2.578903      0.001322
Ti       5.82908      2.15100      6.09969         2.000445      0.297147      0.405711
Ti       6.00597     13.93884      6.34441        -2.191295     -2.186305      0.593240
Ti       5.87551      1.77923     10.57141         1.292001      0.497968     -2.072047
Ti       5.83731     13.51306     10.41473         0.604702      1.256152     -0.897147
Ti       5.81299      6.04442      1.95550        -2.855436     -1.495398     -0.292337
Ti       5.82837      5.58973     14.68600         0.217748      2.510823     -1.946076
Ti       5.78818      6.05444      6.25953        -0.916429     -0.185999      0.581191
Ti       6.09033      5.79011     10.49877        -2.123259      1.243504     -0.286456
Ti       5.60542      9.92922      1.89222         1.221697      0.887067      1.372123
Ti       5.85335      9.75698     14.45482        -1.722848     -0.061852     -0.184863
Ti       5.76042      9.90770      6.01787         0.367299      0.553422      1.128768
Ti       5.83574      9.77476     10.56522        -0.910489     -0.790091     -1.138605
Ti       9.94609      2.08317      2.15951        -0.592992     -0.515552      0.356708
Ti       9.75063      1.91151     14.94149         0.659407      0.270275     -1.466708
Ti       9.75923     13.62852      2.11965        -0.472651     -0.174628     -0.534702
Ti       9.79776     13.72751     14.89952         0.819824      0.877167      0.388237
Ti       9.70777      2.34510      6.14491        -1.521728     -1.802915      1.282275
Ti       9.74901     13.75951      6.16260        -0.315104     -0.949527      1.248501
Ti       9.76798      1.84341     10.35763        -1.409026      0.531934      0.788438
Ti       9.54567     13.64282     10.05551         1.431217     -0.953626     -2.220296
Ti       9.52030      5.93336      1.74112         2.099277     -1.181753      0.236018
Ti       9.76440      5.83269     14.50871         0.373651      1.111998      0.447278
Ti       9.43181      5.98672      6.22078         1.379906     -0.278659      0.194110
Ti       9.85435      5.72173     10.46718        -1.270350      0.616132     -0.699026
Ti       9.71293      9.63918      1.93338        -0.140337      2.165819      1.283337
Ti       9.93101      9.92909     14.72074        -0.635432     -3.943304     -1.158487
Ti       9.44846      9.87776      5.98223         1.184874     -1.284996      0.533434
Ti       9.58641      9.55924     10.33841        -1.218146      0.181400     -0.210597
O       1.95495      1.75356      0.01012        -0.456025     -0.669234      0.984476
O       2.02215      1.96807     12.74608        -0.278317      1.011567     -1.651254
O       2.06400     14.04644      0.51409        -0.361751     -1.522034     -1.050613
O       2.30206     13.84814     12.13984        -1.342184     -0.665583      3.287457
O      13.91187      2.03995      0.22674        -1.243809      0.476278      0.982929
O      13.79308      1.80489     12.45889        -0.225180     -0.284101      0.422079
O      13.69438     13.48971      0.11202        -0.340407      0.248315      1.590366
O      13.72363     13.94170     12.72775        -1.213356     -0.970555     -1.714206
O       1.90384      2.12501      4.08879         0.556614     -0.280633      1.086571
O       1.74882     14.03165      4.47139         0.103071     -1.874516     -0.168058
O      13.83939      1.99348      4.27948        -0.783052      0.119690     -0.397703
O      13.65480     13.53784      4.28151        -0.465089      0.333467     -0.991393
O       1.98932      1.99250      8.20856         0.618424     -0.079444      2.351916
O       2.08885     13.21677      8.25569        -1.193802      1.354797      0.794795
O      13.68215      1.94792      8.45420        -0.320427     -0.065165     -1.987244
O      13.54645     13.59529      8.27361        -0.348289     -0.066048      0.607781
O       1.99938      5.80497      0.00180        -0.289752      0.737479      0.385753
O       1.94352      5.57452     12.68527        -0.109509      0.406037      0.132046
O      13.63349      5.41525      0.04499         0.437017      1.869693      0.591034
O      13.69485      5.86272     12.27607         0.251927     -0.284407      1.822079
O       2.36361      5.78312      4.13387        -0.500795      0.627045      0.691165
O      13.43168      5.93135      4.22365         0.267364      0.141503      0.550292
O       1.78740      5.82139      8.38541        -0.042901     -0.133115     -1.764140
O      13.72191      5.63520      8.23824        -0.562435      1.049811      0.622511
O       1.75087     10.25876     16.47830         1.008330     -1.712404      0.794878
O       1.73907      9.90106     12.56858        -0.400138     -0.867596     -1.322886
O      13.63557      9.60401     16.42997        -0.489646      0.143180      1.111217
O      13.94313      9.87547     12.31138        -0.554175     -0.622386      2.146389
O       1.82092      9.47296      4.02868        -0.563719      0.662617      0.844057
O      13.82449      9.67066      4.19535        -0.285980     -0.205220     -1.220349
O       1.81802     10.08302      8.33948         0.175216     -1.084909     -0.006405
O      13.44210      9.78953      8.38753         0.408808      0.010374     -0.605196
O       5.86328      1.86789      0.01734         0.616718      0.293666      0.319901
O       5.79557      1.71945     12.52438         0.488689      0.766189      1.657524
O       5.77274     14.03351      0.40124        -0.254363     -0.697647     -2.017949
O       6.25770     13.60714     12.81679        -0.281873     -0.377955     -0.241339
O       5.95316      2.11384      4.17225        -0.686362      0.007749      0.426918
O       5.80529     13.56632      4.53260         0.876271      0.381747     -1.323312
O       5.83333      1.95092      8.45878        -0.738200     -0.622940      0.641142
O       6.10793     13.76318      8.48156        -1.251030     -0.011219     -0.487048
O       5.97425      5.67818     16.52616        -0.316418      0.928106      1.191989
O       5.44481      5.83870     12.53139         1.182462     -0.708439     -0.218998
O       5.75704      6.01847      4.36652        -0.073612     -0.636119     -0.873966
O       6.34160      6.18630      8.62308        -1.368831     -1.768781     -0.709340
O       5.73274      9.58243      0.09550        -0.233790      0.271255      0.233182
O       5.84736      9.81698     12.61209         0.447426     -0.021005      0.265432
O       6.04255      9.94954      4.19398        -1.604381     -0.096336      0.972450
O       5.95500      9.89564      8.71640        -0.410300     -0.541955     -0.675311
O       9.86316      2.13397      0.15329        -0.361098     -0.227268     -0.376741
O       9.50333      1.96494     12.21671         0.445820     -0.714784      0.103771
O       9.89781     13.45426      0.15509        -0.937555     -0.150123      1.213607
O       9.76019     13.62419     13.03427        -0.466385      0.416886     -0.762362
O       9.73895      2.16902      4.22546        -0.338319      0.134137     -0.860453
O       9.76450     13.80487      4.22599        -0.163180     -1.140526     -1.622599
O       9.74416      1.81142      8.21515         1.233752      0.702369     -0.927228
O       9.78016     13.31598      8.19882        -0.059743      1.541404      0.345407
O       9.42565      5.87709     16.59858         0.327388     -0.567834     -0.433832
O       9.81371      6.03090     12.67738        -0.459826     -1.038427     -1.882528
O       9.44617      5.96870      4.27840         0.671921     -0.151779     -0.647755
O       9.81643      5.90627      8.42622        -0.275399     -0.589341      0.891831
O       9.84578      9.65755     16.60849         0.391560      1.003854      0.046737
O       9.73551      9.89708     12.53075         0.090395     -0.253359     -0.175640
O       9.69198      9.57161      4.15774        -0.223802     -0.126087     -0.000098
O       9.50045      9.78130      8.34255         1.365098      0.043846      0.233356
O       3.92798      1.74070      2.06779         0.658895     -0.502110      0.191097
O       3.85464      1.89270     14.68792         2.236002     -0.293950     -0.447757
O       3.74445     14.08145      2.63295         0.929553     -0.828545     -0.840486
O       3.83000     13.56132     14.45724         2.158264      1.336588      0.476408
O       0.17646      2.41120      2.23922        -1.223115     -0.756241     -0.469299
O      15.52083      2.01103     14.58510         0.712234      0.522565     -0.254468
O      15.60713     13.39099      2.21204        -3.691927     -0.067421     -0.146544
O       0.05904     13.57017     14.49055         0.947984      0.094563      0.140401
O       3.91937      2.18464      6.07161        -0.484276      0.236917      0.463436
O       3.91841     13.60139      6.35608        -1.289998      0.045659     -0.189738
O      15.60226      1.71802      6.19633        -0.961622      0.780232      0.180934
O      15.45961     13.57943      6.28016         0.888717      1.150703      0.398388
O       3.90987      1.82316     10.53249        -0.058598     -0.055280     -0.135921
O       4.03994     13.59301     10.21922        -0.334097     -0.020102      0.148564
O       0.07370      1.78590     10.24423         0.385276      0.180238      1.008139
O       0.11317     13.89542      9.92615        -2.272669     -0.978726      1.520732
O       3.90888      5.85191      1.75440         1.806067      0.599994     -0.147233
O       3.86172      5.76888     14.54597         1.110282     -0.376872      0.862645
O       0.24638      5.68545      2.12745        -2.964519      0.333732      0.043963
O      15.56778      5.75606     14.50805        -0.125473      0.017497      0.020438
O       4.11723      5.34890      6.74873        -1.150548      1.263993     -1.430818
O       0.31954      5.89768      6.17676        -1.829020      0.740665     -0.433614
O       3.88673      5.79527     10.05171         0.717876     -0.264921      0.655787
O      15.57748      5.75633     10.24182         0.585503      0.542332      0.217553
O       3.69606      9.98978      2.25512         2.863080     -0.712453     -1.236945
O       3.83974      9.90682     14.64196         0.041150     -0.978209     -0.345401
O      15.56067      9.82942      1.77272        -2.242557     -0.564903      0.765760
O       0.00630      9.75829     14.66166        -0.765503     -0.260485     -0.465868
O       3.71483     10.03949      6.50311         3.007677     -0.189691     -1.424973
O       0.08544      9.35459      6.23212        -0.466112      0.920056      0.126236
O       3.81141      9.75087     10.39712        -0.384197      0.305918      0.390351
O      15.52219      9.91750     10.10709         0.681472     -0.448284      0.789776
O       7.72197      2.02752      2.19842         2.426918      0.884859     -0.559675
O       7.72475      1.88296     14.53544         1.203940      0.393483      0.654575
O       7.74185     13.11821      2.25228         1.423373      2.083986     -0.711828
O       7.74580     13.34557     15.23883         1.448448      1.406568     -1.500310
O       7.66611      2.07951      6.33129         2.705761     -1.520764     -0.359944
O       7.81541     13.66807      6.39229         0.684177      0.672519     -0.655180
O       7.91204      1.94633     10.07635        -1.476851     -0.467972      0.761939
O       7.79967     13.81197     10.16130         1.177131     -0.676265      1.190257
O       7.63033      5.80891      2.10710         1.271439      0.930941      0.134522
O       7.73671      5.91112     14.52926         0.160117     -0.302310     -0.551848
O       7.65114      6.35541      6.24800         0.532157     -0.289151      0.373006
O       7.90912      5.88727     10.64434         0.520426     -0.225091      0.836571
O       7.59815      9.65292      2.10022         1.087038      0.354060     -0.835111
O       7.85230      9.59090     14.72471         0.651317      0.194201     -0.017038
O       7.71179      9.46662      6.24755        -0.667513      0.423415     -0.197991
O       7.72186      9.45988     10.39579         2.616616      0.031790      1.215995
O      11.82458      1.97966      2.17205        -1.758077      0.551813      0.050183
O      11.60546      1.61612     14.19590         0.128314      1.306356      1.196816
O      11.62804     13.76989      1.98334         1.723317     -0.114770      1.229508
O      11.73555     13.66606     14.94308        -0.050258      0.204314     -0.678836
O      11.68878      2.30661      6.08146        -0.230736     -0.497157      0.578245
O      11.63616     13.38703      6.09986         0.906775      0.417689      0.048864
O      11.78731      1.96912     10.38066        -0.690030     -0.409125      0.142981
O      11.62323     13.69002     10.27150         0.647437     -0.036519      1.008903
O      11.65608      5.76948      1.96987         0.096930      0.624379     -0.063053
O      11.71463      5.59915     14.37711         0.007456      0.441735      0.810046
O      11.67025      5.49812      6.31437        -0.391347      1.155740     -0.307077
O      11.78004      5.81869     10.41756        -0.207844     -0.384872     -0.280943
O      11.71831      9.44948      2.18736         0.798003     -0.047569     -0.584829
O      11.87921      9.95200     14.35717        -0.836753     -0.653734      0.286581
O      11.74689      9.96374      5.98186        -1.001075     -0.857748      0.465300
O      11.69661      9.55603     10.39525        -1.124114      0.880252      0.516021
O       2.27878      3.90858      1.97497        -0.090216     -0.721315     -0.118088
O       1.99647      3.80945     14.96482        -0.328396     -0.632029     -0.781043
O       1.40209      0.02092      2.38077         0.447753      1.581126     -0.315293
O       1.89455      0.03086     14.27482         0.067165     -1.314162      1.337488
O      13.73106      3.93025      2.47710        -0.553287      0.464855     -0.736471
O      13.62929      3.92322     14.45385        -0.557563     -2.027642     -0.328755
O      13.80062      0.13325      2.34715        -0.183862     -1.482752     -0.571880
O      13.97441      0.00121     14.89608        -1.681158     -0.548177     -0.657651
O       1.78576      3.78747      6.29875         0.184557      1.911902      0.139189
O       1.89058      0.00191      6.46952         0.405545     -1.156142      0.356270
O      13.77506      3.98193      6.21036         0.883296     -0.912291     -0.019658
O      13.42259      0.13377      6.30852        -0.528885     -0.871435     -0.668928
O       1.95801      4.01331     10.39453         0.008099     -3.833903      0.684911
O       2.04211     15.52406     10.40668         0.672085      2.290750     -0.611292
O      13.72742      3.81100     10.36501         0.069264      0.615262      0.225652
O      13.58874     15.52216     10.42853         0.146685     -0.390987      0.478763
O       2.12501      7.89755      2.12310        -0.765421     -1.098342     -1.739001
O       1.86247      7.75433     14.62072         0.001519      1.035767      0.068741
O      13.84352      7.60936      2.21646         0.043808      2.246992     -1.038557
O      13.50341      7.68810     14.47820         0.541207      0.908817     -0.043367
O       2.48922      7.57822      6.62583        -0.250484      4.274596     -0.892573
O      13.64377      7.75564      6.42257        -0.811693     -1.247804     -0.144648
O       1.91999      7.72020     10.46137        -0.957287      1.859585     -0.091819
O      13.76029      7.81710     10.38752        -0.000535     -0.919476     -0.614556
O       1.83230     11.71987      2.07806         0.524108      1.942457      0.763536
O       2.19137     11.88303     14.33382        -1.961067     -1.374807      0.007961
O      13.32234     11.63543      2.21075         0.298164     -0.558320     -0.352850
O      13.88412     11.73538     14.56172        -0.926248     -0.454747     -0.384495
O       1.78068     11.64074      6.02958        -0.471316      0.049156      0.605411
O      13.85762     11.70333      6.23731        -0.679497     -3.471491     -0.064346
O       1.97684     11.75799     10.76001        -0.521069     -0.866110     -1.023838
O      13.41320     11.70642     10.61915         0.890598      1.453420     -0.413760
O       5.73741      4.02099      2.06084         0.134187     -0.908595      0.263509
O       5.96052      3.78662     14.53883        -0.464339     -0.815153     -0.124365
O       6.23678      0.01008      2.28308        -0.605649      0.420135      0.706634
O       6.18000     15.43605     14.73766        -0.697185      2.124108     -0.280155
O       6.24285      4.01786      6.42414        -1.011982      0.485026     -0.427403
O       5.59215      0.12382      6.22791         1.387304      0.104790      0.851467
O       5.90008      3.84436     10.61086         0.094350     -0.090981      0.101094
O       6.01988     15.44485     10.80853        -0.639467      1.630666     -0.645926
O       5.57391      7.85446      2.19944         0.390659      0.190432     -0.400066
O       5.64407      7.73362     14.30871         0.842876      0.211078      1.399602
O       5.38591      7.90614      6.24559         0.575615      0.634797      0.216839
O       5.71279      7.71784     10.57290         0.138512      0.855077      0.731841
O       5.60855     11.89056      1.93884        -0.270005     -2.501050     -0.038838
O       5.99935     11.55383     14.74283        -0.044282      1.480008      0.379508
O       5.91179     11.77208      6.52496         0.113978     -2.112693     -0.935230
O       6.24918     11.72112     10.62942        -0.577678      0.032775      0.257292
O       9.58310      4.02523      2.01813         0.346335     -1.242125      0.539910
O       9.72446      3.80841     14.38708        -0.124286     -0.270346      0.730787
O       9.57890      0.02152      2.27085         0.279792     -0.140951     -0.634442
O       9.58476      0.10034     15.02373        -0.046496     -2.414940     -0.705861
O       9.43675      4.08714      6.43938         0.079692     -0.986309     -0.394018
O       9.89299     15.52727      6.10790         0.302692      1.514115      0.695027
O       9.72287      3.86655     10.54154         0.712759      1.276644     -0.570854
O       9.81286     15.52713     10.15730         0.489241     -0.126694      0.607118
O       9.53523      7.84934      1.73483         0.100551     -1.928829      1.195970
O      10.01959      7.70574     14.61664         0.171556      0.712623      0.182224
O       9.90632      7.67913      6.18785         0.750689      2.504022      0.390873
O       9.96300      7.70839     10.39007        -0.573476      1.104160      0.283906
O       9.94287     11.52395      2.27181        -0.189784      0.734322     -0.491458
O      10.06900     11.67503     14.64872        -1.361628      1.076854      0.715832
O       9.61117     11.70985      6.02318        -0.079312     -1.680825     -0.161125
O       9.88789     11.68756     10.18141        -0.371801     -0.593229      2.065228
