  # total energy = -7851.03808255 
CRSYTAL
PRIMVEC
    15.6080000000000005    0.0000000000000000    0.0000000000000000
     0.0000000000000000   15.6080000000000005    0.0000000000000000
     0.0000000000000000    0.0000000000000000   16.6239999999999988
PRESSURE
3.42829 3.53709 2.3919 -0.406717 -0.28852 -0.16941
PRIMCOORD
320 1
Pb       4.15470      3.98394      4.23417        -0.333529      0.716436     -0.073775
Pb       4.06289      3.68773     16.61641        -0.488846      0.934697      0.284665
Pb       4.19088      0.04519      4.13575        -0.444609     -0.357057      0.784723
Pb       3.93254      0.18308      0.29503         0.111227     -1.866226     -0.989284
Pb       0.28150      3.87765      4.19466        -0.249149      0.499079     -0.528802
Pb       0.04988      3.86483      0.11727        -0.266180      0.195225      0.529083
Pb      15.49836      0.07022      4.13561        -0.315570     -0.291576      0.476917
Pb       0.02273      0.07645      0.01423         0.211526     -0.116746      0.051377
Pb       3.99888      3.76077      8.18675        -0.256512      0.252379      1.044470
Pb       3.92425      0.02328      8.66800         0.010986     -0.794393     -0.399583
Pb      15.57604      3.74372      8.32622        -0.954266      0.573352     -0.611744
Pb      15.31308     15.54005      8.13161        -0.019652     -0.255843      0.218322
Pb       3.69464      3.83632     12.28353         0.412299      0.277688      1.092401
Pb       3.82099      0.32100     12.37943         0.158552     -0.758902      0.638796
Pb       0.21345      3.90970     12.41185        -1.496075     -0.130046      1.177050
Pb      15.26847     15.35620     11.99325         1.424512      0.983525      2.568834
Pb       3.92990      8.16820      4.15145        -0.066585     -1.064720     -0.142000
Pb       4.01787      7.93368     16.61379        -1.214441     -0.407031      0.681338
Pb       0.12945      7.69714      4.14490         0.099268     -0.316887     -0.309535
Pb       0.05593      8.13332     16.49157         0.887932     -0.725234      0.882305
Pb       4.14369      7.91431      8.63649        -1.643591     -1.115512     -0.083622
Pb       0.03046      7.79870      8.50747        -0.689679      0.229480      1.029849
Pb       3.82587      7.56230     12.71301        -0.379087      0.079958     -0.247710
Pb      15.58599      7.61077     12.48936         0.299112      0.599897     -0.076704
Pb       3.72436     11.96027      4.55859         0.253900     -0.232479     -0.358871
Pb       3.53785     11.82887      0.25895         0.290581      0.457980     -0.040207
Pb       0.18713     11.61801      4.13031        -0.375475      0.795681      0.040274
Pb      15.43366     11.62083     16.41118         0.431440      0.785321      0.262031
Pb       3.79353     11.53334      8.26644         0.022641      0.540790      1.161899
Pb      15.48106     11.61077      8.18091        -0.246845      0.378451      1.487208
Pb       4.38955     11.85606     12.45104        -2.520192     -1.379953      0.523846
Pb      15.33404     11.77478     12.49537        -0.196790     -0.486868     -0.272410
Pb       8.13391      3.96142      3.69262        -1.776674     -0.807773      1.510243
Pb       7.84496      3.98494     16.43619        -1.156131     -0.770295      0.568372
Pb       8.28251     15.57392      4.11259        -1.577736      0.496356     -0.014021
Pb       7.63052     15.31332     16.54174         0.254486      1.457389      0.405368
Pb       7.49802      4.04297      7.92401         1.673892     -1.150722      2.990492
Pb       7.69888      0.04035      8.35502        -0.037574     -0.471135      0.425036
Pb       7.88139      3.91766     12.39931        -0.050964     -0.617961      0.936786
Pb       8.17242      0.27069     12.65045        -2.351927     -1.440665      0.872196
Pb       7.57862      7.85956      4.08136         0.715426      0.187461     -0.043626
Pb       7.63413      7.89420      0.19687         0.876215     -0.440503     -0.553577
Pb       7.68338      8.02279      8.26977         1.299635     -0.864535      0.793337
Pb       7.72360      8.05433     12.47943        -0.585552     -2.065128      0.855931
Pb       7.69566     11.81567      4.03024        -0.172637     -0.656281      0.557080
Pb       7.96500     12.11678     16.56939        -0.528272     -2.578365      0.521720
Pb       7.61931     11.45440      7.96773         0.598744      0.571004      2.377185
Pb       7.89440     11.43844     12.69246        -0.007392      1.641602      0.015604
Pb      11.33315      3.80702      3.95818         1.819712     -0.709291      0.768094
Pb      11.80010      3.72263     16.54106         0.387321      0.801758     -0.172391
Pb      11.66517     15.41434      4.29641         0.754969     -0.159157     -0.372058
Pb      11.99595      0.00034      0.25634        -0.099163     -0.436134     -0.876401
Pb      11.54250      4.05366      8.54988         0.712717     -0.349976     -1.085541
Pb      11.59493      0.22522      8.12786         0.656322     -0.347377      0.745868
Pb      11.54190      3.49443     12.35446         0.965636      0.911277      1.891571
Pb      11.53115     15.28702     12.32217         0.535917      0.139627      0.321372
Pb      11.19734      7.56432      4.20510         2.208966      1.171046     -0.329250
Pb      11.94212      7.91149     16.56755        -1.062264     -0.885538      1.092781
Pb      11.91071      7.59088      8.74019        -0.241082      0.643526     -0.364010
Pb      11.57896      7.71641     12.62171         0.707252     -0.353825     -0.387997
Pb      11.39012     11.47608      3.87933         0.918031      0.983925      1.350441
Pb      11.88697     11.41814     16.26253        -0.725589      2.202144      1.519151
Pb      11.28486     11.68215      8.23891         1.580269      0.219726      1.337039
Pb      11.76689     11.57357     12.37879        -0.708676      0.797176      0.323675
Ti       2.18386      1.86278      2.31601        -3.649472      0.359925     -1.584627
Ti       1.84870      1.90216     14.77158        -0.146522      0.705269      0.254599
Ti       1.92640     13.83066      2.33085        -0.293816     -1.463691      0.421080
Ti       1.84755     13.84952     14.22536         0.218822      0.948746      0.359868
Ti      13.72818      2.17691      2.19676         0.391947     -1.793350     -0.797414
Ti      13.68332      1.96736     14.73985         0.240866     -0.020393     -1.160350
Ti      13.68797     13.73196      2.06633        -0.435381     -2.117341     -0.351761
Ti      13.68043     13.76088     14.45361        -0.568688     -1.528466      0.119596
Ti       1.86918      1.98901      6.33250        -0.224239     -0.883882      0.386223
Ti       1.95570     13.74327      6.62690        -0.149476     -0.487469     -0.008026
Ti      13.51112      1.83839      5.93437        -0.503251      1.375155      2.477465
Ti      13.38975     13.45332      6.39453         1.468939      0.167315     -0.899810
Ti       1.79796      1.95227     10.19409         0.931293     -0.550511      1.393290
Ti       1.83962     13.68272     10.53303         0.424786     -0.991454     -1.507553
Ti      13.69438      1.95655     10.56851        -0.332136     -0.793522     -0.752460
Ti      13.38081     13.61818     10.32038         0.152321     -0.309666      0.130860
Ti       2.05936      5.83232      2.12696         0.452462      0.132275      0.988014
Ti       1.98429      5.84473     15.02909        -0.237411     -0.718042     -1.545741
Ti      13.62508      6.05519      2.42056         0.389758     -0.750242     -2.006655
Ti      13.67934      5.89259     14.97186         0.298893     -2.228715     -2.446386
Ti       2.23326      5.86981      6.73895        -1.181722      0.744210     -1.828505
Ti      13.82916      5.73013      6.29910        -1.386988     -0.204412      0.186440
Ti       2.05039      5.81583     10.42679        -0.769980      1.484966      4.163716
Ti      13.61242      5.80477     10.81987         1.026803      0.461505     -0.039861
Ti       2.10976      9.77962      2.32871        -0.906363      0.166925     -2.205352
Ti       2.19009     10.07195     14.65891        -2.338054     -0.896613      0.040668
Ti      13.63270      9.89463      2.34603         0.310324     -1.256412     -1.067239
Ti      13.62408      9.65543     14.56403         0.743146      1.729890     -2.514968
Ti       1.74449      9.67335      6.59620         1.692453     -0.008736     -0.960088
Ti      13.51305      9.51857      6.24995         1.315685     -0.159900      2.370953
Ti       1.81865      9.98059     10.92853        -1.716738     -2.230634     -1.866801
Ti      13.46396      9.74519     10.60858         1.913401     -1.164481      0.991244
Ti       6.16308      1.91770      2.30194        -0.804523     -1.100816     -1.708012
Ti       5.85593      1.77028     14.84225         0.783034     -0.003840     -1.687785
Ti       5.80313     13.65663      2.27058         0.006947      0.581238     -0.692176
Ti       5.69617     13.50742     14.75019        -0.321921      3.375775     -0.040628
Ti       5.73349      1.90810      6.22776         0.708138     -0.712982     -0.608995
Ti       5.89866     13.61505      6.43920        -1.787698      0.301980     -1.211739
Ti       5.82391      1.92324     10.43260         0.647467     -0.237272      1.079070
Ti       5.82742     13.57837     10.71817        -1.532888      0.899630     -1.993600
Ti       5.84667      5.77011      2.12042        -1.223027      0.890227     -1.264949
Ti       5.80986      5.82833     14.76017        -0.207880     -0.571690     -0.623686
Ti       6.17962      5.99040      6.32718        -2.302438     -2.047609     -0.497542
Ti       6.01559      5.74819     10.65112        -1.025765      1.385830     -1.083654
Ti       5.90256      9.94328      2.05198        -0.584889      0.028780      1.410503
Ti       5.87304      9.75805     14.78431         0.229461     -0.643199     -0.932521
Ti       5.79517      9.68665      6.36660        -1.399999      1.603009     -1.169511
Ti       5.61167      9.55332     10.69744         0.467516      1.493467     -0.535944
Ti       9.86739      1.73936      1.80260        -0.060214      0.560984      0.823608
Ti       9.79469      1.88645     14.80983        -0.598721      0.055790     -1.010860
Ti       9.77970     13.52112      2.09698         0.939593      0.681992     -1.524450
Ti       9.80535     13.65870     14.68967         0.317195     -0.435388     -1.615405
Ti       9.50299      2.00100      6.43948         2.905881      0.266327     -1.201940
Ti       9.63897     13.60400      6.39351        -0.109082      0.680042      0.404503
Ti       9.77282      1.77959     10.51317        -0.779041      0.481160      0.132722
Ti       9.33139     13.44753     10.58959         2.293408      0.447794     -0.173107
Ti       9.74634      5.72650      1.95342         0.744079      1.370423     -1.785163
Ti       9.73459      5.93385     14.87448         0.631887      0.001664     -1.148573
Ti       9.98849      5.81968      6.18652        -0.604726     -0.258514      1.348666
Ti       9.85340      5.72812     10.68134        -0.451850      1.274700     -1.045126
Ti       9.68749      9.55612      2.16166        -0.172617      2.454195     -1.375324
Ti       9.72673      9.65575     14.47322        -0.004555      0.729041      7.153648
Ti       9.96288      9.56450      6.45232        -2.243610     -0.803260     -1.307170
Ti       9.58362      9.64148     10.46202         1.086504     -1.016361     -1.227565
O       1.89884      1.35532      0.44135         0.067668      0.982201      1.745528
O       1.84662      2.22650     13.00646         0.854032     -0.155838      0.333774
O       1.96350     14.02088      0.61698         0.102911     -0.140598     -0.237202
O       1.73487     14.01456     12.35020         0.175822     -0.279225      3.247493
O      13.51508      1.90699      0.28553        -0.006196     -0.135247      1.023525
O      13.78900      1.80156     12.97562        -0.382734     -0.030975     -0.925553
O      13.67930     13.41147      0.23103        -0.058356      0.459259      0.855903
O      13.50899     13.60831     12.59634        -0.070402      0.492842      0.568632
O       2.05245      2.14480      4.57080         0.398580      0.201038     -1.118973
O       1.79027     13.28822      4.85051        -0.135233      0.566942     -0.381623
O      13.40324      1.73650      4.15498         0.545511      0.372105      0.030682
O      13.36499     13.59721      4.57041        -0.306652      0.325211      0.053150
O       1.91318      1.93100      8.44777        -0.366302      0.437873     -0.467308
O       1.79883     13.38358      8.67713         0.541835      0.368933     -0.833246
O      13.74074      1.80461      8.78076        -0.102888      0.397782      0.210104
O      13.19185     13.84265      8.56365         0.443118     -0.589482     -0.268426
O       2.19060      5.97197      0.43192        -0.228892     -0.100112     -0.885864
O       1.85895      5.30910     13.19276         0.581036      1.679674      0.666061
O      13.63756      6.10686      0.56008         0.031638      0.063911      0.436510
O      13.85225      5.89126     13.12719        -0.481952      0.312848      0.438361
O       2.21237      5.81205      4.88448        -0.356787      0.186923      0.938071
O      13.80017      5.72756      4.53426         0.281623     -0.083055     -1.134098
O       1.81035      5.88308      8.80189        -0.104825     -0.352260     -3.778876
O      13.28075      5.78709      9.02490         0.307696     -0.905926     -1.016216
O       2.14061      9.84575      0.52292        -0.438521     -0.049275     -0.517143
O       2.22077      9.87153     12.93380         0.048602     -0.222468     -0.350838
O      13.55808      9.82687      0.39182         0.252398     -0.091885     -0.090269
O      13.34441      9.69979     12.76521         0.730018     -0.634205      1.778383
O       2.05534      9.85441      4.63180        -0.497425     -0.793949      0.064111
O      13.50986      9.73711      4.57837         0.484275      0.241122     -2.204540
O       1.28495      9.89849      9.06249         1.506809     -0.270899      0.142420
O      13.68073      9.46125      8.92323        -0.120285      0.605747     -2.015723
O       6.14247      1.66114      0.42795        -0.667687      0.646862      1.067046
O       5.58401      1.71730     13.01390         0.130142      0.559060      0.008571
O       5.62176     13.76006      0.45026         0.665155     -0.432589      0.755244
O       5.65774     13.66424     12.97744         0.441849      0.078620     -1.130991
O       5.82402      2.13501      4.39196        -0.028843     -0.637183      0.358416
O       5.76651     13.27999      4.61577         0.755676      0.914926      0.599791
O       5.66697      1.77029      8.66937         0.247313      0.573321     -0.901443
O       5.75364     13.65615      8.95208         0.427328      0.006779     -1.053269
O       5.78600      5.86154      0.28290         0.074360      0.196086      1.287381
O       5.73886      5.93255     12.93808         0.500220     -0.537092      0.066736
O       5.99797      5.59624      4.60295        -0.179472      0.362141     -0.595216
O       6.24883      5.93052      8.79563        -0.536847      0.263814     -0.577167
O       6.01602      9.73617      0.33374        -0.156757     -0.027180     -2.214247
O       5.81073      9.51644     12.85363        -0.380304      0.870909     -0.022373
O       5.58435     10.01563      4.61392         0.351910     -0.925386     -0.204730
O       5.89392      9.46234      8.77839        -0.200200      0.312794     -0.180820
O       9.64426      1.45735      0.09552         0.415275      0.578155      0.034454
O       9.71790      1.87006     12.89646         0.445037      0.771924     -1.034590
O       9.76685     13.52741      0.23571        -0.235080      0.250841      0.193210
O       9.44496     13.51684     12.84442         0.877600     -0.006583      0.028729
O       9.59230      2.11159      4.62663         0.286924     -0.293524     -0.560580
O       9.75130     13.76994      4.61996        -0.213520     -0.749086     -0.801158
O       9.68438      1.81551      8.79058        -0.142628      0.239903     -2.933527
O       9.30933     13.50019      8.77412         0.584336     -0.208032      0.356150
O       9.63223      6.16003      0.20994         0.781891     -1.065532      2.586349
O       9.85603      5.38386     13.18434        -0.752170      0.597850     -1.752444
O       9.77173      5.67190      4.33079        -0.319918     -0.078074     -0.861002
O      10.01935      5.88016      8.85136         0.211511     -1.304604      0.357252
O       9.48439      9.72924      0.40008         0.595200     -0.315475      0.220473
O       9.64891      9.58562     12.85847         0.140605     -0.021704     -6.592740
O       9.86482      9.42366      4.61332        -0.387672      1.305980     -0.385443
O       9.62008      9.70773      8.57089         0.296104     -0.065290      0.599644
O       3.93600      1.52980      2.18353         1.710035      0.961804      1.536035
O       3.76360      1.74705     15.31890         0.632939      0.633427     -1.684749
O       3.88521     13.76316      2.81204         0.229347      0.027144     -0.781838
O       3.62547     13.94930     14.76019         0.231854     -0.325718     -0.292053
O       0.07191      1.89166      2.43304        -1.146404     -0.746295      0.746734
O      15.50104      2.02643     15.29340         0.980410      0.212117     -0.461505
O      15.55009     13.48277      2.49823        -0.073820      0.588241      0.386507
O      15.57612     13.49544     14.44706         0.098029     -0.093940      0.962244
O       3.91761      1.81102      6.50792        -0.257301      0.308594      0.230340
O       3.92164     13.58563      6.63872        -1.130168      0.316720      0.288466
O      15.54228      1.94270      6.19821         0.652324      0.187262      0.441890
O      15.28179     13.53449      6.66358         0.584429      0.013975      0.090174
O       3.71386      2.04367     10.71920         0.267759      0.005638     -0.409495
O       3.76891     13.49534     10.86892         0.238769     -0.198407     -0.553639
O       0.05145      1.86964     10.79415        -1.005586      0.096966     -0.572877
O      15.34754     13.57555     10.45156         0.173916      0.229964      0.072120
O       3.92801      5.73142      2.57689         0.738644     -0.138930      0.076099
O       3.93774      5.66789     15.01266         0.084561      0.302539     -0.041666
O       0.20796      5.92526      2.58915        -0.878461      0.189031      0.429949
O      15.57225      5.91529     15.42986         1.135593     -0.081361     -0.779379
O       4.06710      5.93733      7.10233        -0.293076     -0.140597     -0.965512
O      15.57770      5.76310      6.75897         0.906719     -0.811801      0.202242
O       3.88162      5.70032     10.66994        -0.039057      0.195784      0.324198
O      15.52140      5.87564     10.91414         0.371062     -0.524856     -0.251505
O       4.06006      9.69390      2.27009        -0.750306     -0.032089      1.071456
O       3.90131      9.86415     15.12176         2.081007     -0.103247      0.163900
O       0.01554      9.83251      2.23605        -0.477440     -0.243359      1.509803
O       0.14616      9.88460     14.84597        -1.000867     -0.562677      0.175008
O       3.88424      9.39225      6.88630         0.316111      1.147771     -0.485991
O      15.54602      9.72131      6.75779        -0.995703     -0.082113     -1.199291
O       3.74163      9.90510     10.64358         1.571276     -0.427288     -0.005784
O      15.42693      9.68928     11.32797         0.437037      0.180663     -0.537138
O       7.96584      1.79947      2.46485         0.480943      0.585062     -0.191138
O       7.80075      1.94677     14.75560        -0.739998     -0.514585      0.498133
O       7.82426     13.52850      2.45642        -0.282269      1.238713      0.024912
O       7.66960     13.66312     14.90422        -0.528070     -0.702167      0.256080
O       7.73359      2.14216      6.46504        -1.423706     -0.070988      0.691229
O       7.70119     13.36768      6.67384         0.650634      0.039206     -0.503257
O       7.67204      1.98118     10.56292        -0.241254     -0.321318      0.955457
O       7.59321     13.61959     11.07264         0.949857      0.196145     -0.234963
O       7.80556      5.83606      2.16062         0.750393     -0.477325      0.727883
O       7.81062      6.09762     15.09414        -1.110196     -1.048271     -0.640285
O       7.99157      5.62224      6.47281        -0.833545      0.636226     -0.185646
O       7.83199      5.75440     10.96598         1.414615      0.290592      0.378709
O       7.69199      9.64034      2.45914         0.755579      0.031624      1.116544
O       7.83323      9.55843     14.59947        -2.246520      0.147310      1.028246
O       7.66306      9.78893      6.40574         0.578477     -0.403071      0.490014
O       7.71297      9.42543     10.63728         0.522381     -0.068768      0.569575
O      11.70766      2.08120      2.26457        -0.816906     -0.230878     -0.443108
O      11.69189      1.95683     14.89112        -0.522750     -0.400106      0.320766
O      11.62734     13.59145      2.19861        -0.020009     -0.461840      0.810812
O      11.70243     13.60843     14.69960        -0.858028     -0.245567      0.150526
O      11.55719      1.58732      6.29383         0.371814      0.159924      0.226849
O      11.44485     13.95482      6.65219         0.056698     -0.763160      0.049092
O      11.60126      1.73414     10.71845         0.968048      0.307244      0.230523
O      11.44531     13.42487     10.81356        -0.053839      0.524076     -0.332428
O      11.72608      5.76031      2.30623        -1.638930     -0.391225      0.569753
O      11.73381      5.91577     15.10577         0.276742      0.156824      0.404263
O      11.77329      5.76383      6.44107         0.336665      1.022321      0.394809
O      11.77606      5.75280     11.30626        -1.961070     -0.257052     -0.809870
O      11.58339      9.74522      2.46280        -0.152766     -0.351461     -0.560832
O      11.68949      9.81861     14.70423         0.219369     -0.933320      0.606026
O      11.71788      9.31535      6.63125        -0.019630      0.510996      0.563796
O      11.56717      9.47095     10.80983        -0.657580      1.027390     -0.195985
O       1.92735      3.74442      2.11752         0.736079      0.209003      1.117365
O       1.97382      3.83645     15.50855        -0.068571     -0.324247     -0.798994
O       1.83755     15.59380      3.04200         1.065987     -0.177281     -0.921778
O       1.31649      0.12758     14.60501         1.325995     -2.163404      0.185694
O      13.99734      3.88158      2.30829        -1.046798      1.625154      0.720403
O      13.60258      3.84934     14.93225        -0.016568      1.084967      0.785475
O      13.42905     15.51495      2.13553         0.813752      0.054402      0.735261
O      13.67465     15.46253     14.89426        -0.050570      1.503644      0.424710
O       1.91693      3.87898      6.92746         0.727031      0.474521     -0.899257
O       1.84192     15.57279      6.61407        -0.123522      0.049472     -0.197066
O      13.50920      3.64702      6.58678         0.440639      0.543578     -0.206915
O      13.72207      0.04201      6.47218        -0.836104     -0.129503     -0.099435
O       1.72862      3.93186     10.70328         0.750908     -0.783103     -0.606690
O       1.93420      0.04189     10.18877         0.134667     -0.767963      1.097838
O      13.54819      3.73673     10.86431         0.029681      0.882311     -0.161897
O      13.53576     15.55225     10.69095        -1.494473     -0.533611     -0.503835
O       2.09887      7.80448      2.41286        -0.167063      0.777483      1.208315
O       2.17061      7.76369     15.05263        -0.465792     -0.030074     -0.349879
O      13.41043      7.82436      2.76866         1.258687      0.201504     -0.414671
O      13.75514      7.83953     15.08008        -0.431141      1.046787     -0.550011
O       1.87951      7.85370      7.17722         0.370986     -0.926292     -1.512698
O      13.82319      7.63415      6.59449        -0.495087      0.873901     -0.136772
O       1.85296      7.79429     11.00548         0.678434     -1.045092     -0.047266
O      13.60670      7.73279     10.80441        -0.516724     -0.867666      1.054980
O       2.15049     11.79427      2.30752        -0.436126     -0.331444      1.338374
O       2.06347     11.91749     15.07681        -0.620085     -0.135255     -0.744824
O      13.41276     11.63420      2.50843         0.662159      0.713697      0.135184
O      13.66029     11.67005     14.62694        -0.209536     -1.105590      1.233776
O       1.97877     11.52837      6.84179        -0.184469     -0.133192     -0.358975
O      13.28313     11.57290      6.69566        -0.288349      0.211422     -0.051769
O       1.60138     11.72407     11.17963         1.079425      1.381309     -1.130425
O      13.49504     11.64510     10.75798        -0.290398      0.374407     -0.371515
O       5.82146      3.79325      2.26174         0.426121      0.025021      0.641800
O       5.92247      3.76686     15.03495        -0.378282      1.016287     -0.141041
O       6.14134     15.50135      2.78499        -0.912803      0.571355     -0.290999
O       5.85803     15.50861     15.09251        -0.197975      0.253597     -0.320994
O       5.66423      3.81913      6.57683         0.265581      0.513589      0.236050
O       6.07488     15.54756      6.50252        -0.364931      0.233613     -0.062572
O       5.82382      3.99055     10.74816        -0.135045     -2.823353      0.175408
O       5.46055     15.60664     10.70946         0.549979      0.575077      0.166687
O       5.88785      7.65810      2.53876        -0.348535      0.334657     -0.154167
O       5.63150      7.86488     14.91607         0.453607     -0.296483      0.375275
O       6.06038      7.75658      6.31061        -0.157211      0.683794      0.416827
O       5.58412      7.68186     10.93154         0.305542      0.687896     -0.132223
O       5.91434     11.77949      2.24097        -0.035428     -0.719944      0.629509
O       5.71151     11.70625     14.92981         0.362646     -1.110730     -0.080780
O       5.63399     11.64504      6.82744         0.146760     -0.609689     -0.287063
O       6.07937     11.49318     10.82469        -1.137056      0.663734      0.593945
O       9.75797      3.71214      1.82653        -0.528496      2.291140      1.368816
O       9.65286      3.75902     15.17675         1.031672      0.559338     -0.121456
O       9.93984     15.58989      2.23481        -0.655429     -1.346978      1.322780
O       9.52535     15.49335     14.63086         0.693154      0.161444      0.566800
O      10.10281      3.96686      6.49057        -1.469202     -1.900028      0.976987
O       9.23795     15.57015      6.64690         0.877239     -0.008361     -0.190842
O       9.80601      3.77532     10.73655        -0.172250      0.335642      0.392315
O       9.62333     15.50671     10.80108        -0.289539     -0.830109     -0.056471
O       9.66590      7.80085      2.41639        -0.045053     -2.811079      0.151495
O       9.86793      7.81454     14.83543         0.171350     -0.030515     -0.260788
O       9.60403      7.68519      6.47022         0.143341     -0.378612      0.393548
O       9.82590      7.61366     10.61285        -0.390518      0.728845      1.539714
O       9.48331     11.72739      2.47644         1.240259     -1.314335      0.072891
O       9.46172     11.62691     14.83153         0.840939     -0.066172     -0.152144
O       9.85611     11.53156      6.54179        -0.407084      1.186942     -0.444601
O       9.57389     11.42815     10.93795        -0.329668      1.343032     -0.531447
