  # total energy = -7841.91424857 
CRSYTAL
PRIMVEC
    15.6080000000000005    0.0000000000000000    0.0000000000000000
     0.0000000000000000   15.6080000000000005    0.0000000000000000
     0.0000000000000000    0.0000000000000000   16.6239999999999988
PRESSURE
1.7142 2.59404 -1.40271 0.248482 0.304612 0.274229
PRIMCOORD
320 1
Pb       3.44703      3.61367      4.17745         0.711138      1.038056     -1.562312
Pb       3.70361      3.89418      0.06963         0.370725     -0.297147      0.456461
Pb       3.57460     15.47180      3.96654         1.444078      0.395658      0.651827
Pb       3.99830      0.00545     16.44788         0.359034      0.219653     -0.180035
Pb      15.30645      3.90537      4.09267        -0.292144     -0.646450     -0.246031
Pb       0.12069      3.88189     16.31451        -0.988013     -0.131230      0.299297
Pb       0.19832     15.45140      4.07178        -1.853700      0.922471      0.942457
Pb      15.41210     15.49458      0.11807         0.006910      1.632249     -0.514284
Pb       3.90444      4.06790      8.29092         0.031033      0.589946      1.111830
Pb       4.00999     15.55939      8.00179        -0.013793     -0.397263      0.164216
Pb       0.22790      3.77246      8.64897        -1.425788      0.253737     -1.211194
Pb       0.37401      0.10403      8.77353        -1.527902     -0.258252     -1.381933
Pb       4.02862      3.90363     12.69033        -1.131365     -0.759264     -0.995370
Pb       3.83917     15.40631     12.65984         0.516242      0.350899      0.202360
Pb      15.50709      4.08013     12.35133        -0.285381     -0.799958      0.949827
Pb      15.51957      0.04353     12.94277         0.002048     -0.262880     -0.784638
Pb       3.91129      7.34200      4.25545        -1.082880      0.581839     -1.591284
Pb       3.88391      7.66151     16.60028        -0.128614      0.079480      0.139311
Pb      15.47296      7.64111      4.56061        -0.778220      0.650904     -1.309840
Pb      15.36410      7.79698      0.09670        -0.047741     -0.850243      0.005670
Pb       3.80245      7.65630      8.01535        -0.255834      0.362289      0.689535
Pb      15.52006      7.80011      8.38295         0.273667     -0.189344     -0.616633
Pb       4.10327      7.90167     12.13566        -0.523475     -0.683399      0.156694
Pb      15.36829      7.95885     12.55068         0.201171     -0.266425      0.202882
Pb       4.18700     11.51372      3.88893        -1.008487     -0.531012      0.021782
Pb       4.14854     11.41482     16.34812        -0.984745      0.358660      1.415394
Pb      15.42495     11.92929      4.07026         0.197613     -1.112031      0.265193
Pb       0.00276     11.57558      0.20191         1.565330     -0.316436     -0.441307
Pb       4.12097     11.54298      8.12848        -0.987508      0.392019      0.148806
Pb       0.10800     11.72411      8.79913        -0.508446      0.517749     -0.999849
Pb       3.83516     11.45563     12.31331         0.952563      0.256016      0.431499
Pb       0.05167     11.66479     12.62939        -0.394452      0.245043     -0.401523
Pb       7.56812      3.78175      4.37277         1.290205      0.401320     -0.674170
Pb       7.77272      4.10649      0.23349         0.090043     -1.852558     -0.283563
Pb       7.41792     15.52905      4.30604         0.219469      0.505164      0.629774
Pb       7.84459     15.59407      0.21231        -0.838156      0.217083     -1.276484
Pb       8.09213      3.79851      8.62383        -0.475257     -0.452589     -1.295473
Pb       7.74287      0.03675      8.28279         0.196982      0.022344     -0.757873
Pb       7.67363      3.67271     12.66349         0.856457      0.501532     -1.174129
Pb       7.83395      0.11798     12.31455        -2.316042     -1.296073      0.174389
Pb       8.01966      7.80285      4.23676        -0.157712     -0.012184      0.238682
Pb       7.85874      7.57128     16.55596        -0.495229      1.340303     -0.213914
Pb       7.71858      7.66909      8.15712         0.168548      0.346221      0.158960
Pb       7.92344      7.62903     12.23086        -0.317004      1.201661     -0.489902
Pb       7.97659     11.56890      4.29269        -1.247152      1.040474      0.487457
Pb       7.87356     11.66984      0.05222         0.307459     -0.368699     -0.727610
Pb       8.20871     11.71996      8.48718        -0.701875      0.042868     -0.132993
Pb       7.31860     11.42981     12.34252         0.789753      0.661357     -0.121731
Pb      11.56560      3.84158      4.34516         0.687265      0.300772     -0.222170
Pb      11.51836      3.82091      0.15231         1.044324      0.834636     -0.162093
Pb      11.52176      0.19634      4.02496         0.381175     -0.070757      1.015891
Pb      11.36266     15.57318     16.47535         0.471537     -0.315761      0.658772
Pb      11.60706      3.49364      8.29210         1.003095      1.047810     -0.760526
Pb      11.73267     15.33781      8.58448         0.009568      0.785775     -0.363272
Pb      11.69016      4.17504     12.43896         1.001341     -0.383940     -0.154735
Pb      11.86858      0.07971     12.91850         0.101600     -0.741723     -0.621378
Pb      11.86140      8.07577      3.95909         0.107116     -0.504435      0.998534
Pb      11.27674      7.95489     16.59510         0.672180      0.124929      0.034906
Pb      11.42315      7.80013      8.06021         1.023810     -0.820312      1.064566
Pb      11.67898      7.97621     12.43321         0.006071      0.197214      0.086879
Pb      11.63118     12.18068      4.29665         0.375022     -0.455878      0.883945
Pb      11.50290     11.91565      0.19319        -1.325001     -0.422305     -0.134042
Pb      11.97609     12.00057      8.59034        -0.519976     -0.799373     -0.172126
Pb      12.10146     12.05338     12.81976        -1.284235     -0.853421     -1.761039
Ti       1.70320      1.78868      2.20114         0.305749      2.315062     -1.542437
Ti       1.93900      1.83409     14.58254         2.093797      0.267507     -0.442658
Ti       1.98589     13.42251      2.02672        -0.170598     -0.836683      2.342906
Ti       1.94648     13.59532     14.57981         0.908466     -0.150388     -0.858058
Ti      13.49114      2.02276      2.14328         0.704890      0.318715     -0.932477
Ti      13.61728      2.07202     14.66132         0.269804      0.288422      1.044284
Ti      13.57972     13.71385      2.15746        -0.324489      1.213454      1.202979
Ti      13.68063     13.40208     14.95892        -1.225134      4.234304     -1.301311
Ti       2.08621      2.01335      6.61841        -4.799340     -1.869803     -0.712389
Ti       1.85265     13.52270      6.32437         0.500694      0.104288      2.576889
Ti      13.79273      1.98925      6.09900         0.424980     -2.041062     -0.070637
Ti      13.69305     13.69426      6.36583        -1.014418      1.570347     -0.101398
Ti       2.04990      1.87223     10.62491         0.672920      2.056201      1.082307
Ti       2.23912     13.72712     10.32893        -1.233985      0.426581      0.309656
Ti      13.59478      2.09668     10.43932         0.698214     -1.306736      0.182075
Ti      13.96228     13.81628     10.55347        -1.435344     -1.275902      0.077487
Ti       1.68643      5.74091      1.92892         2.838758     -0.025613      0.936886
Ti       2.02876      5.76728     14.44529        -0.604216     -0.311965      0.484410
Ti      13.56084      5.94152      2.10196         0.021311     -0.891529     -0.086766
Ti      13.39287      5.82802     14.70941         2.234627     -0.252876     -0.290364
Ti       1.77979      5.73883      6.22323         0.226058      0.469097      2.519444
Ti      13.65645      5.85181      6.30326        -2.188878     -1.457259     -0.371220
Ti       1.89695      5.65689     10.62079         1.605134      1.122030     -0.018484
Ti      13.60504      5.84135     10.21528         0.267506     -0.328266      0.483278
Ti       1.80118      9.49887      2.03903         1.841149      1.647737     -0.012466
Ti       1.99494      9.54592     14.69290         0.966165     -0.068244     -0.734267
Ti      13.54205      9.86173      1.98688        -0.095406     -0.467130      0.786413
Ti      13.69199      9.77763     14.73529        -1.668499     -2.051487     -1.572578
Ti       1.67883      9.77679      6.10188         3.079624      0.387881      3.305160
Ti      13.55806      9.77398      6.42321        -0.557971      0.915663     -0.765933
Ti       1.80671      9.70135     10.41069         1.165375     -1.515561      3.653704
Ti      13.55566      9.60592     10.34192        -1.124883      1.963447     -0.496843
Ti       5.69068      2.04205      2.12773        -0.505875      0.020347     -1.600262
Ti       6.05269      1.85477     14.74928         0.059854     -2.274569      0.540310
Ti       5.84168     13.51117      2.05571         0.128350      0.205259     -0.752363
Ti       5.80330     13.51102     14.58000         2.090682      2.772888      1.167038
Ti       5.86017      2.19294      6.36940         1.048271     -4.077043     -0.229292
Ti       5.71647     13.59113      6.24885         1.269091      1.552021     -0.352382
Ti       5.84178      2.01904     10.18215        -0.206352     -1.236374      0.118415
Ti       5.85218     13.84280     10.26600         0.016299     -0.913959      1.580176
Ti       5.85153      5.93215      2.11366        -1.763798     -1.396550     -0.182399
Ti       5.92329      5.64725     14.37713        -1.768318      1.764195      1.532260
Ti       5.86697      5.80445      6.15694        -0.428386     -0.254017     -0.882079
Ti       6.09093      5.64894     10.43327        -2.500047      0.778392     -0.047753
Ti       6.03527      9.58790      2.04719        -3.904915      0.940206     -1.196032
Ti       5.81586      9.52416     14.52497         1.243513      0.399656      0.951389
Ti       5.71687      9.59169      6.15612         0.301586      2.170916      0.678121
Ti       5.82759      9.68361     10.06544         1.452493      0.609194      0.453432
Ti       9.51280      2.18273      2.30440         0.836928     -0.316122     -0.460124
Ti       9.83609      2.11176     14.40108        -1.729010     -1.445039      1.557611
Ti       9.53570     13.85925      2.38400         1.508827     -0.572083     -1.116864
Ti       9.48664     13.55481     14.44615         1.560487      0.434354      1.516857
Ti       9.76796      1.82598      6.40762        -0.584596      0.362812     -0.302560
Ti       9.69231     13.52791      6.48025         1.027826      1.775618     -0.540060
Ti       9.80584      1.89552     10.60427         0.168497     -0.574170     -0.409382
Ti       9.66766     13.58673     10.72186         1.540975     -1.222944     -0.580277
Ti       9.76012      5.96382      2.19884         0.550060     -0.498479      0.197305
Ti       9.65130      5.96899     14.38002         1.796179     -0.821980      2.132694
Ti       9.75073      5.77679      6.05957         1.310971      0.043430      1.636177
Ti       9.94843      5.79788     10.23775        -0.807461      0.436919      0.599442
Ti       9.67885      9.87601      2.40786         0.932641     -0.149061     -2.068985
Ti       9.68798      9.85315     14.48159         0.169408     -0.148057     -0.348477
Ti       9.70967      9.75253      6.30527         2.168079     -0.200931      0.429183
Ti       9.82852      9.72783     10.39761         0.070415      2.105879      0.504614
O       2.06616      2.02306      0.35954        -0.599286     -0.753394      0.205843
O       2.11343      1.75221     12.69783        -0.999244      0.050056      0.495329
O       2.09670     13.54724      0.35736        -0.364211     -0.169926     -1.653974
O       1.92746     13.85452     12.61641        -0.144152     -0.219112      2.981969
O      13.84503      2.09697      0.19756        -1.239496     -0.571373      0.839614
O      13.78200      2.21821     12.88721         0.484367     -1.027160     -0.295328
O      13.18602     13.55772      0.29408         1.266799      0.648805     -0.779623
O      13.77845     13.58915     12.83408         0.621850      0.151100     -0.364136
O       1.94471      1.89036      4.28394        -0.688534     -0.495071      0.410161
O       1.76437     13.71277      4.55959         0.193635     -0.259726     -1.114510
O      13.82637      1.85631      4.13636        -0.707973      0.052205      2.232131
O      13.76106     13.54066      4.36170        -0.167480      0.767058      0.024104
O       1.77598      1.99604      8.66267         1.266510      0.184986     -0.543424
O       2.31484     13.58162      8.48763        -0.755967      0.732567      1.216870
O      13.63356      1.99433      8.64637        -0.544430      0.397366      0.102598
O      13.48596     13.76213      8.53623         1.055357     -0.244652      1.032447
O       1.90900      5.81269      0.11231        -0.771557      0.036373     -0.145827
O       1.96299      5.48768     12.63782         0.403498      2.095350      1.143491
O      13.65645      5.78873      0.23762         1.202119      0.994027      1.056447
O      13.25579      6.10757     12.78072         0.456249     -0.932931      1.638571
O       1.92088      6.05687      4.54141        -0.550583     -0.725149     -0.616687
O      13.43991      5.97525      4.30173         0.601502      0.356254      2.306620
O       2.03046      5.45553      8.87791         0.213478      0.560868     -1.927977
O      13.75240      5.74407      8.48851        -0.985872      0.182011     -0.824896
O       2.10899      9.93140     16.57654        -1.224196     -1.261512      3.708824
O       2.08583      9.55425     12.84404        -0.255531      1.331241     -0.879003
O      13.48245      9.79762      0.17460         0.741388      0.235432     -0.585976
O      13.86235     10.00712     12.78123         0.176398     -1.469274      0.680277
O       1.64341      9.54408      4.41504         0.098245      0.006648     -1.812643
O      13.79427      9.48564      4.56283        -0.511001      1.316831      0.076476
O       1.84358      9.88225      8.76611         0.521275     -0.056164     -2.324294
O      13.37195      9.84349      8.53106         1.691987     -0.431716      0.534532
O       5.71492      2.18354      0.16040        -0.017144     -0.157566      1.033365
O       6.40260      1.93235     12.85834        -1.925528     -0.896366      0.712206
O       5.74661     13.59348      0.20374         0.363678     -0.343936      2.502635
O       6.12146     13.81474     12.92837        -0.233989      0.122461     -2.816350
O       6.15012      2.05650      4.51201        -1.460506     -0.241722     -0.823530
O       5.93620     13.60985      4.42780        -0.193468     -0.015848     -0.777913
O       5.86383      2.11453      8.34755        -0.592627     -0.715603      1.733987
O       5.75433     13.83566      8.51032        -0.032629     -0.167691     -0.215218
O       5.51259      6.08835      0.24785         2.401559     -1.064249      0.789237
O       5.92322      5.60439     12.63037        -0.270344      0.311145     -1.570255
O       5.54361      5.71575      4.35341         0.833619      0.162446      0.561305
O       5.98419      5.91700      8.67462         0.593453     -0.068986     -2.230354
O       5.86608      9.60589      0.16510         1.110578      0.280219      0.595798
O       5.57261      9.60356     12.79011         0.992881      1.274281     -1.429214
O       5.99219     10.03322      4.38857        -0.890396     -0.899592      0.848946
O       6.02172      9.68533      8.19254        -0.436075     -0.240323      1.323671
O       9.75615      2.41613      0.24459        -0.692579     -1.030553      1.445749
O       9.44532      1.54296     12.62696         2.415074      3.250495      0.808745
O       9.89452     13.64009      0.37647        -0.099530      0.336002      1.108541
O       9.36269     13.46992     12.66716         0.922462      0.297863     -0.835923
O       9.45043      2.05808      4.37468         0.592197     -0.209545     -0.143066
O       9.66532     13.66116      4.57763        -0.159631      0.108834     -1.656690
O       9.94796      1.92503      8.42904        -1.090532      0.111120      0.937243
O       9.99056     13.69832      8.50814        -1.151590     -0.702814      0.480129
O       9.51977      5.83686      0.26375         0.047340      0.666844      0.595698
O      10.04918      6.04245     12.70345        -0.165680     -0.374045     -1.406954
O       9.90905      5.94332      4.26468        -0.177150      0.306452      0.701823
O       9.66310      6.11919      8.50769        -0.342226     -0.715313      0.030960
O       9.55094      9.57647      0.36695         0.140661      0.330121      0.927556
O       9.77425      9.75114     12.73780        -0.352981      0.307158     -0.526592
O       9.86143      9.75575      4.45985        -0.402192      0.598469     -1.408758
O       9.97507      9.76049      8.58064        -1.627558     -0.196950     -0.325617
O       3.80100      1.99580      2.42913         0.487088      0.282717      0.392749
O       3.90328      1.70894     14.60094         0.747160      0.131968      0.755623
O       3.87312     13.42199      2.56214         0.438081      0.623831     -0.879905
O       4.02003     13.84814     14.62936        -3.626488     -0.090829      0.231961
O      15.41210      2.04428      2.18865         3.360076      0.001417      0.393049
O       0.11188      1.72113     14.84638        -1.401557      0.732889     -0.132344
O      15.53047     13.55460      2.28385         0.130535      0.623262     -0.495837
O      15.50903     13.54385     14.87202         0.508838      0.710889      0.594988
O       3.77953      2.27598      6.30767         2.091273     -0.926086      0.462028
O       3.90116     13.84253      6.42952        -0.888723     -0.573917     -0.332338
O      15.59850      2.09073      6.41562         0.119855     -0.699090      0.012809
O      15.56823     13.57817      6.67032         0.947060     -0.152695     -0.239116
O       3.97546      2.06812     10.40379        -0.490775     -0.481201      0.563418
O       3.97661     13.86062     10.78468         1.592397      0.727738     -0.026447
O      15.49142      2.17907     10.57218         1.708599     -0.400008      0.517332
O       0.17939     13.75381     10.49447         0.054098     -0.132290     -0.561869
O       3.61992      5.63739      2.39916         1.474274      1.614510      0.119072
O       3.94605      5.73020     14.87010         0.277601     -0.869108     -1.394081
O      15.53063      5.87224      2.56716        -0.265798      0.007444     -0.862921
O      15.40497      5.49934     14.47551         1.848938      0.726697      0.421418
O       3.77757      5.81722      6.44767         0.513836      0.264568      0.823765
O      15.47383      5.76100      6.60316         1.641908      0.396138     -0.819336
O       4.13085      5.60877     10.45708         0.004568      0.580537      1.150783
O      15.56199      5.76702     10.27205         0.828765      0.079185      2.476675
O       3.93783      9.88177      2.07957        -0.401576      0.682501      1.134302
O       3.98824      9.76916     14.84077        -0.673635     -0.329100     -0.137006
O      15.43023      9.68092      2.07144         1.652661      0.263208     -0.445922
O       0.21784      9.90884     14.79255        -2.964869     -0.728251      0.328371
O       3.82320      9.62568      6.53634         0.905291      0.134102     -0.560486
O       0.03687      9.72886      6.73221        -1.893533      0.700013      0.059453
O       4.07463      9.75706     10.62064        -2.111434     -0.315576     -0.381265
O      15.47131      9.57121     10.51342         1.844443      0.207674      0.483221
O       7.72087      2.12170      2.22746        -0.473165      0.105631     -0.267156
O       7.91915      1.63665     15.11087         0.586583      1.470752     -0.915554
O       7.72695     14.06401      2.45594        -1.753280     -1.737385     -0.718381
O       7.83402     13.53745     15.09577        -0.116266      0.287443     -0.010099
O       7.71419      2.01588      6.73821         1.135473     -0.673455     -0.514659
O       7.85607     13.53942      6.59474        -0.162084      0.891076      0.563103
O       7.74457      1.93274     10.68822         1.918203      0.158633     -1.358338
O       7.71293     13.52923     10.57196         0.986230      0.587284     -0.883166
O       7.74677      6.22214      2.43923        -0.271444     -0.319494     -0.960464
O       7.80160      5.84698     14.34727         0.705337      0.512927      1.435342
O       7.67164      5.97227      6.00713         0.770171      0.364391      1.036956
O       8.03973      5.77514     10.62360        -0.550682      1.153271      0.583787
O       7.70418      9.78344      2.66707         2.964573     -1.184265     -0.764996
O       7.86368      9.85103     14.76866        -1.263178     -0.669522     -0.061636
O       7.96471      9.51706      6.42165        -2.278708      0.485573     -0.025254
O       7.70757      9.69463     10.71457         0.788153      0.583449     -0.732930
O      11.57190      2.09123      2.39263        -0.540328     -0.651277     -0.013515
O      11.69488      2.25880     14.38150        -0.548787     -1.536040      0.806523
O      11.57249     13.81982      2.69610         0.897364      0.132390     -0.994706
O      11.68306     13.60418     14.58324         0.487913     -0.713842      0.422308
O      11.63285      2.22968      6.32441        -0.397923     -0.367520     -0.338003
O      11.73840     13.71852      6.33129        -0.379903     -0.570200      0.204928
O      11.73636      1.94657     10.84696        -1.039648      0.309410      0.040855
O      11.70280     13.82961     10.72140        -1.018252     -1.225319      0.380503
O      11.71708      5.82465      2.08315        -2.146021      0.667659      0.196169
O      11.62586      5.64862     15.14636        -1.148988      1.054411     -1.155696
O      11.63001      5.53002      6.70085        -0.076746      1.317850     -1.308337
O      11.78917      5.87922     10.61967        -1.976970     -0.637616     -0.504908
O      11.67184     10.00153      2.31521        -0.256682     -0.499864      0.213563
O      11.77440      9.54438     14.61244         1.343441      0.761983      0.884990
O      11.66458      9.46227      6.69526         1.741683      1.777030     -2.379707
O      11.74273      9.99378     10.58337         0.410137     -0.389134      0.884980
O       1.97546      3.94293      2.21446        -1.665787     -1.189275      0.514141
O       2.06294      3.77378     14.66140        -0.209519     -0.161535      0.655433
O       1.88207     15.46202      2.40898        -0.179446      0.025736     -0.772817
O       1.88681     15.49518     15.05626        -0.183351     -0.321734     -0.473092
O      13.36409      3.92806      2.73168         1.344370      0.395909     -1.230275
O      13.58598      3.91691     15.09531        -0.068710     -0.139533     -1.167711
O      13.78403      0.10332      2.16127        -1.037648     -2.104608      0.058769
O      13.49532      0.03906     14.85031         0.274142      0.124213      0.061740
O       1.78429      3.88697      6.71633         0.735125      0.590287     -0.791421
O       1.82933     15.60741      6.79250         0.784595      1.002591     -0.813096
O      13.65807      3.84652      6.26717        -0.147413      1.625307     -0.486555
O      13.45434      0.10072      6.40685         0.729775     -0.306436     -0.181729
O       2.19967      3.83930     11.01406        -1.425342     -0.548917     -1.325603
O       1.83255      0.12369     10.80362         0.380096     -1.220275     -1.315271
O      13.55079      3.92212     10.95282        -0.127108      1.516123     -1.188949
O      13.74944     15.56195     10.75210         0.237163      1.773506      0.230621
O       2.10122      7.74215      2.32666        -1.081485      0.885009     -0.787112
O       2.22353      7.58600     14.72267        -1.496706      1.356389     -0.144936
O      13.64045      7.86798      2.23113        -0.725812      0.217647     -0.263956
O      14.03686      7.79790     14.91342        -1.027836      0.708822     -0.639764
O       1.81773      7.78499      6.87938        -0.240116     -0.812042     -1.065131
O      13.89216      7.83023      6.46866        -0.745962     -1.191003      1.014545
O       2.05064      7.89645     10.85124        -0.625422     -1.125143     -1.257476
O      13.47155      7.74191     10.56840         0.969813      0.693374      0.067739
O       1.64106     11.54152      2.54251         0.871817      0.710145     -1.246654
O       1.84617     11.80045     14.97579         0.982195      1.014356     -1.202547
O      13.57410     11.84115      2.21782         0.223620     -1.316424      0.253267
O      13.62741     11.67020     14.69112         0.074173     -1.136110      1.187383
O       2.22002     11.67734      6.68549        -1.285164     -0.204296     -1.498664
O      13.49809     11.79515      6.49830         0.258699     -1.737418      0.077123
O       2.30878     12.01304     10.76422        -2.044263     -3.722041     -0.716149
O      14.12469     11.75437     10.63769        -1.131043      0.051396     -0.280284
O       5.83610      4.04947      2.17418         0.594613      0.030486      0.261042
O       6.08705      3.78383     14.60333        -0.194872      1.477095      0.582457
O       5.66611      0.23323      2.10456         0.533108     -1.859421      0.800805
O       6.03439     15.54188     15.04144        -0.781739      1.159816      0.189566
O       5.93667      3.90913      6.55484        -0.328914      3.834433     -0.334695
O       5.79883      0.01018      6.39546         0.456566      0.827754      0.566302
O       6.12537      3.79630     10.59913        -0.136661      1.176713      0.289223
O       6.00156      0.12556     10.52087        -0.435913     -0.945565     -0.275275
O       5.60997      7.82961      2.19470         0.388573     -0.181909      1.200954
O       5.83437      7.72748     14.42812         0.411913     -1.439199      1.192112
O       5.74195      7.81304      6.13735         0.173983     -1.660800      0.681569
O       6.00859      7.93901     10.58578        -0.332867     -2.160056     -0.035412
O       6.24789     11.69387      2.30642        -1.478626      1.407550     -0.358770
O       5.79547     11.76271     14.57803         0.236193     -3.450816      0.702789
O       5.91033     11.87269      6.61853        -0.610791     -2.765893     -0.204377
O       5.69763     11.70994     10.66395         0.464489      0.202485     -0.455699
O       9.50304      4.16069      2.57756         0.237030     -1.087248     -1.241269
O       9.72028      3.87427     14.67358        -0.865186      1.154646     -0.900751
O       9.47515      0.07525      2.14719         1.856439      1.598210      0.869906
O      10.00565     15.49937     14.71418        -0.693977      0.433985     -0.321257
O       9.44211      3.98177      6.57592         0.357710      0.715832     -0.641507
O       9.82355      0.04605      6.43691        -0.580348     -0.282175      0.132834
O       9.73284      3.87677     10.35053         1.035415      0.687484      0.467372
O       9.84437      0.12442     10.50004        -0.977600     -1.929827     -0.033424
O       9.88961      7.99417      2.46414        -0.491615     -1.423965     -0.208916
O       9.92932      7.83564     14.64330        -1.209926     -1.080719      0.939508
O       9.86664      7.80781      6.32809        -0.719980     -1.961182      0.299200
O       9.95115      7.98180     10.73622        -0.550673     -2.941526     -0.105658
O       9.52207     11.82239      2.38219         0.078869     -0.506877      0.031182
O       9.73218     11.69436     15.01700         0.714717      0.239736     -0.374126
O       9.83666     11.64807      6.47769        -0.210867     -0.024153      0.395168
O       9.63639     11.63432     10.65053        -0.047021      2.335932     -0.509094
