  # total energy = -7883.48337521 
CRSYTAL
PRIMVEC
    15.464    0.0000000000000000    0.0000000000000000
     0.0000000000000000   15.464    0.0000000000000000
     0.0000000000000000    0.0000000000000000   17.350608
PRESSURE
-0.576031 -0.454135 0.014148 -0.293628 0.038605 -0.020965
PRIMCOORD
320 1
Pb       3.76792      3.97726      4.22841         0.526895     -0.424586      0.590040
Pb       3.69213      3.87943      0.10727         0.545381     -0.180032     -0.804175
Pb       3.84983     15.33745      4.29494        -0.058834      0.523662      0.473725
Pb       3.69648     15.39107      0.02345         0.899365      0.158567     -0.496930
Pb      15.35444      3.85746      4.26949         0.477051      0.174628      0.067404
Pb       0.04877      3.98691     17.27971        -0.177662     -0.499541      0.261557
Pb       0.02583      0.00794      4.37572        -0.291632     -0.507319     -0.180953
Pb       0.05197     15.46198     17.29073        -0.770306      0.383909      0.441380
Pb       3.90455      3.84704      8.66071        -0.387171      0.116349     -0.127597
Pb       3.79492      0.05931      8.60421         0.273816     -0.418075     -0.121259
Pb       0.09884      3.93312      8.75538         0.057669      0.177844     -0.490935
Pb       0.04488     15.45534      8.62563        -0.203884      0.023569     -0.283150
Pb       3.94160      3.87199     13.06671        -0.306149     -0.204624     -0.257062
Pb       3.80998      0.02539     12.99643         0.265493      0.058277     -0.175570
Pb       0.02407      3.79876     13.00812        -0.005625     -0.070796     -0.719683
Pb       0.02205     15.38299     13.05127        -0.259409      0.511036     -0.800365
Pb       3.87386      7.71635      4.37441        -0.261372     -0.260386      0.175334
Pb       3.95834      7.75816     17.19204        -0.241512     -0.105284      0.197794
Pb       0.10148      7.74554      4.38293        -0.338665     -0.272664     -0.412234
Pb       0.00968      7.67852     17.23856        -0.428960      0.236769      0.395338
Pb       3.80272      7.69253      8.61913        -0.044551      0.071124      0.214662
Pb      15.30326      7.77101      8.57151         0.270651     -0.543627      0.141524
Pb       3.80838      7.70802     12.97628         0.290702      0.031318     -0.355838
Pb      15.43164      7.59453     13.05887        -0.051720      0.460243     -0.478264
Pb       3.74704     11.52038      4.26757         0.202814     -0.150475     -0.207564
Pb       3.76627     11.58231     17.28819         0.611018      0.082578     -0.750057
Pb       0.02441     11.54242      4.27075        -0.513430      0.466507     -0.482181
Pb       0.00119     11.55323     17.29721        -0.241134      0.044258      0.158916
Pb       3.78724     11.53373      8.53609         0.603320     -0.020140      0.317817
Pb       0.05054     11.59753      8.73106        -0.774215      0.073781     -0.191932
Pb       3.84764     11.63102     12.92154         0.109256     -0.598785      0.004393
Pb      15.45613     11.54043     13.19574        -0.274091     -0.345856     -0.859968
Pb       7.74327      3.91698      4.18322        -0.089459     -0.513900      0.737996
Pb       7.69506      3.88054     17.31857         0.071265     -0.751332     -0.152246
Pb       7.59752      0.01914      4.30516         0.839861     -0.098527      0.270453
Pb       7.77030      0.00629     17.30791        -0.552440      0.024218     -0.195601
Pb       7.71403      3.81015      8.68678         0.592233     -0.068539     -0.365172
Pb       7.72483     15.36863      8.57001        -0.016194      0.110308      0.354940
Pb       7.72258      3.87195     12.98622         0.148354     -0.665462      0.303737
Pb       7.60651     15.33625     12.91072         0.226095      0.883863      0.013286
Pb       7.67507      7.65622      4.30381         0.257549      0.190966     -0.119529
Pb       7.62342      7.65161     17.22882         0.935987      0.478356      0.480761
Pb       7.74717      7.73899      8.61899         0.134505     -0.347023      0.328133
Pb       7.71517      7.69308     12.91272         0.464740      0.032653     -0.364886
Pb       7.68170     11.57008      4.23649         0.099729      0.130771     -0.260504
Pb       7.74330     11.64329     17.34144        -0.475089     -0.302809     -0.359018
Pb       7.70237     11.55164      8.64463        -0.032859      0.406658      0.154454
Pb       7.75103     11.66017     13.06565        -0.311125     -0.254502     -0.725118
Pb      11.73634      3.88117      4.11688        -0.606619     -0.391422      0.639249
Pb      11.62294      3.82042     17.25144        -0.409612      0.198934      0.398787
Pb      11.53201      0.07908      4.24159         0.160585     -0.559024      0.346248
Pb      11.59291      0.05598     17.24400         0.277172      0.208507      0.247386
Pb      11.46159      3.78477      8.49064        -0.108196      0.251451      0.778932
Pb      11.63081      0.02346      8.67785        -0.324207     -0.049435     -0.460829
Pb      11.56648      3.82334     12.93188         0.203313     -0.319427      0.042588
Pb      11.63026     15.41851     12.96724        -0.510186      0.554395     -0.323184
Pb      11.52352      7.77980      4.37423        -0.019129      0.111211     -0.483373
Pb      11.52522      7.76181     17.33786        -0.010238     -0.676359     -0.165182
Pb      11.65289      7.77099      8.51180        -0.196179     -0.141495      0.618442
Pb      11.62180      7.78398     12.91516        -0.268949     -0.522112      0.070491
Pb      11.56237     11.59431      4.23168        -0.095556     -0.053694      0.105695
Pb      11.59197     11.49983     17.34223         0.178419      0.248540     -0.352232
Pb      11.70586     11.60907      8.68745        -0.045382     -0.504641      0.054083
Pb      11.49726     11.53106     13.18193         0.597437     -0.077458     -0.832705
Ti       1.98155      1.90084      2.35757        -0.549635     -0.067085      0.544607
Ti       1.91557      1.94092     15.33398         0.784667      0.652187      0.536904
Ti       1.87478     13.53878      2.30488        -1.236515     -0.703859      0.158619
Ti       1.83856     13.56270     15.25106         1.398145     -1.120379      0.157485
Ti      13.62200      1.86809      2.33143        -0.917608      0.067950     -2.110733
Ti      13.46981      2.02063     15.38988         0.319257     -1.535398      1.783308
Ti      13.44948     13.56271      2.23193         1.282721     -0.285510      0.608255
Ti      13.54601     13.54472     15.38999        -0.500789     -0.022378      0.688096
Ti       1.95140      1.88139      6.59884        -0.658608      0.407464     -0.100520
Ti       1.81958     13.46332      6.61971         0.307847      0.927289     -0.793479
Ti      13.57014      1.84655      6.58768        -0.200163      0.026929      0.548931
Ti      13.45345     13.44221      6.57543         0.843156      0.635753     -0.991336
Ti       1.95794      1.88059     10.98367        -0.334520      0.456043      0.327890
Ti       1.90618     13.45307     10.91479        -0.485671      0.537129      0.868352
Ti      13.53264      1.86393     10.90084        -0.424480      0.572965      3.090389
Ti      13.52938     13.48999     11.09067        -0.051564     -0.652930      0.072655
Ti       1.87216      5.80963      2.31967        -0.000027      0.193001     -0.909307
Ti       1.89702      5.88160     15.27987         1.270904     -1.883133     -0.728281
Ti      13.54142      5.85379      2.26954        -0.321957     -0.040639     -1.005448
Ti      13.50447      5.75809     15.32827        -0.725668      0.388367     -0.000214
Ti       1.95306      5.71252      6.66573        -0.993973      0.445969     -0.549694
Ti      13.49392      5.62339      6.62747         0.780614      0.815919      0.113642
Ti       1.94724      5.81911     11.06647         0.606601     -1.293960     -1.572759
Ti      13.58769      5.73638     11.03854        -0.815501      0.148041      1.307595
Ti       1.83314      9.62502      2.19477        -0.124978     -0.422859      0.185810
Ti       1.91126      9.58943     15.32117         0.327461      1.233531      0.300320
Ti      13.42609      9.64326      2.32285         0.861332     -0.484865     -0.290712
Ti      13.50109      9.59204     15.40924         0.227145      0.771835     -1.161730
Ti       1.92090      9.64966      6.69419        -0.095854     -1.162717      0.883561
Ti      13.56647      9.64916      6.51598        -1.147041     -0.099930      0.808343
Ti       1.93330      9.65493     10.98460        -0.220877     -0.336628      0.955043
Ti      13.49987      9.70733     11.13429         0.343004     -0.376099      0.164953
Ti       5.81457      1.93292      2.41660        -0.147540     -0.042596     -0.795033
Ti       5.69815      1.90388     15.42701         0.223949     -0.576182     -0.701416
Ti       5.69729     13.52564      2.35135         1.058885     -0.672675     -0.813856
Ti       5.75278     13.47111     15.30901        -0.395633      0.541452      1.241603
Ti       5.84196      1.89130      6.68744         0.246934      0.376614     -0.222587
Ti       5.74571     13.49854      6.62418         0.322669      0.298087      1.479493
Ti       5.71708      1.90798     10.94902         0.542091     -0.356714      0.287824
Ti       5.71229     13.46173     10.98879         0.188009      0.008792     -0.571320
Ti       5.77807      5.79534      2.26877        -0.105181     -0.797150      1.678165
Ti       5.81611      5.68603     15.29636        -1.131225      0.272385      0.733101
Ti       5.80529      5.77900      6.79030        -0.442801      0.034419     -1.240791
Ti       5.82405      5.73957     11.00250        -0.594326      0.758472     -0.327343
Ti       5.65351      9.54875      2.35321         0.852252      1.003391     -0.728859
Ti       5.87677      9.61674     15.22815        -0.620577      1.150847      1.884142
Ti       5.86092      9.66166      6.66018        -0.803157     -0.762820      1.055341
Ti       5.84458      9.57763     10.95774        -0.926485      0.891948      0.441601
Ti       9.72569      1.88232      2.33111        -1.052767      0.331493     -0.530825
Ti       9.54797      1.86875     15.33699         0.101156      0.944414      1.118543
Ti       9.63826     13.47144      2.24876        -0.720247      0.698532     -0.082231
Ti       9.72946     13.49321     15.39739        -0.586442      0.267553      1.812598
Ti       9.68235      1.80512      6.57565        -0.832796      0.915693      0.164779
Ti       9.68394     13.44422      6.73152        -0.750516      0.296553     -0.698501
Ti       9.53410      1.90392     10.99095         0.827514     -0.221953      0.019872
Ti       9.63777     13.56669     10.89894         0.592776      0.282118     -0.560802
Ti       9.67479      5.76906      2.30980         0.999878      0.089154     -0.192876
Ti       9.64811      5.72975     15.33355         0.668129      0.018429     -0.799083
Ti       9.60978      5.77522      6.62625         0.048181     -0.513751      1.008658
Ti       9.68320      5.75975     11.09697         0.485988      0.813829     -1.771950
Ti       9.58487      9.62912      2.22590         0.066275     -0.460929      1.553948
Ti       9.68444      9.61322     15.28017        -0.823447     -0.257739      1.084240
Ti       9.65647      9.67269      6.67632         1.099051     -0.235351     -0.836845
Ti       9.64658      9.79510     11.00571         0.368955     -2.238386      1.071258
O       1.95462      1.81227      0.61185         0.156062      0.185962     -0.317611
O       2.01620      1.94326     13.59008        -0.341784     -0.322299     -0.558202
O       1.79260     13.58975      0.52314         0.606294     -0.239233      0.593358
O       1.84659     13.45266     13.45528         0.063096      0.328313      1.185912
O      13.50646      1.88646      0.50818         0.143366      0.076286      0.890039
O      13.67020      1.80571     13.73121         0.063923      0.283245     -1.981472
O      13.57929     13.59666      0.46362        -0.392271     -0.259835      0.466669
O      13.66338     13.45561     13.63503        -0.382069      0.380380     -0.525867
O       1.83996      1.82441      4.83844         0.244161      0.409602     -0.479923
O       1.71378     13.45222      4.82514         0.751902     -0.162940      0.593410
O      13.53702      1.73148      4.83678        -0.097782      0.619816     -0.727550
O      13.46293     13.46284      4.79169        -0.073063     -0.195474      0.889525
O       2.07824      1.76603      9.21651        -0.508043      0.492889     -0.201301
O       1.71289     13.58712      9.14286         0.694535     -0.471695     -0.226287
O      13.58561      1.75093      9.23249        -0.215466      0.052894     -2.570908
O      13.63246     13.37155      9.35552        -0.249971      0.346900     -0.708646
O       1.98867      5.76195      0.48179        -0.469258      0.308335      1.150164
O       1.90538      5.85917     13.49081        -0.016382     -0.212175      0.261926
O      13.57741      5.76578      0.44494        -0.164964      0.394763      0.832152
O      13.49807      5.59058     13.59405         0.575808      0.361474     -0.602927
O       1.82644      5.73644      4.81224         0.241351     -0.201239      0.843680
O      13.67920      5.69375      4.86491        -0.652792     -0.072930     -0.048973
O       1.97595      5.71294      9.21798        -0.450857      0.143655      0.422523
O      13.50420      5.76687      9.33205         0.327199      0.104827     -1.066042
O       1.90275      9.52737      0.41638         0.030104      0.222025      0.335294
O       1.81661      9.64598     13.57280         0.220270     -0.052817     -0.033443
O      13.43491      9.54597      0.52203        -0.287435      0.112773     -0.128074
O      13.51597      9.77446     13.60742        -0.014250     -0.272082      0.520002
O       1.87895      9.65116      4.97703         0.059902     -0.021783     -1.172450
O      13.48816      9.58471      4.77232         0.212377      0.109936     -0.188946
O       1.95728      9.58443      9.24531        -0.363300      0.235036     -1.076678
O      13.40131      9.63198      9.38968         0.317280      0.163427     -1.060663
O       5.71512      1.95276      0.66801         0.274517     -0.340214     -0.478337
O       5.67808      1.97918     13.65010        -0.040809      0.007298     -0.153366
O       5.57943     13.51272      0.59440         0.315019      0.038381      0.375114
O       5.78971     13.42254     13.55475         0.181492     -0.119564     -1.053550
O       5.84381      1.93379      4.92367        -0.181877     -0.190792      0.319020
O       5.73376     13.64774      4.91054         0.300258     -0.515241     -1.340988
O       5.73482      1.93940      9.16988        -0.255552      0.124047      0.368141
O       5.78507     13.50439      9.25868        -0.322551     -0.318898     -0.297590
O       5.71635      5.77811      0.57149         0.187308      0.264119     -1.269327
O       5.78516      5.73358     13.55541         0.283016      0.063110     -0.456435
O       5.77504      5.75748      5.01959         0.070467      0.181904     -0.863301
O       5.75026      5.83465      9.23247         0.167470     -0.336333     -0.218678
O       5.72104      9.47622      0.59612        -0.096428      0.155150      0.323967
O       5.77215      9.69917     13.52851         0.497189     -0.154466     -1.354783
O       5.72843      9.56254      4.94076         0.043060      0.160984     -1.070871
O       5.73459      9.64329      9.21031         0.384191     -0.068813     -0.745488
O       9.63833      1.93649      0.53434        -0.060032     -0.159661      0.719987
O       9.47760      1.85033     13.66195         0.019772     -0.093992     -2.221695
O       9.61014     13.56615      0.47106         0.008626     -0.228108      0.433292
O       9.72854     13.48769     13.70834        -0.542152     -0.061980     -2.472618
O       9.68283      1.89151      4.82656         0.046906     -0.173135     -0.668727
O       9.56696     13.39925      4.95788         0.358795     -0.143738      0.244656
O       9.61417      1.98712      9.24556        -0.063994     -0.327219     -0.445672
O       9.68681     13.59609      9.10811         0.006339     -0.289516      0.697008
O       9.95029      5.72286      0.58245        -0.976969      0.294804     -0.659904
O       9.62298      5.75706     13.57322        -0.098257     -0.081508     -0.602223
O       9.53878      5.85590      4.88712         0.316123     -0.148912     -0.245412
O       9.63468      5.64620      9.29582         0.095524      0.180811      0.818092
O       9.73003      9.59607      0.50818         0.049385      0.075188     -1.014717
O       9.73318      9.73064     13.54714        -0.421004      0.137332     -0.851854
O       9.75994      9.64112      4.90782        -0.550950      0.053300     -0.168424
O       9.65887      9.78335      9.30863         0.089070     -0.280432     -2.185825
O       3.86160      1.95659      2.78048        -0.891927     -0.052480      0.030258
O       3.83675      1.87851     15.83108        -0.851261     -0.134199      0.290039
O       3.84424     13.45810      2.78014        -1.135060      0.051723      0.024013
O       3.85256     13.51296     15.74518        -1.217942     -0.157933     -0.144401
O      15.39935      1.72897      2.71154         1.388225      0.310275      0.024047
O       0.10278      1.93081     15.80827        -0.681977      0.307566     -0.235704
O      15.41984     13.41065      2.73728        -0.083703      0.614014     -0.426800
O      15.44856     13.47716     15.72404         0.239113      0.425033     -0.168546
O       3.80789      1.99435      7.03400         0.863011     -0.340699     -0.082187
O       3.87480     13.49933      6.92264        -1.060279     -0.263184      0.341563
O      15.43661      1.88012      6.97876        -0.181392     -0.236123      0.265984
O      15.42128     13.49727      7.00115        -0.109069      0.108838      0.226236
O       3.85281      1.92601     11.49243         0.562108      0.549580     -0.274799
O       3.74811     13.43090     11.40251         1.479899      0.179805     -0.229537
O       0.04411      1.69853     11.32306        -0.232381      0.698070      0.203342
O       0.03719     13.40808     11.35225        -0.547067      0.476442      0.487619
O       3.83074      5.72241      2.68525        -0.237791     -0.189473      0.014746
O       3.87881      5.94387     15.59212         0.284834     -0.034557      0.208964
O      15.38981      5.81241      2.64516         0.915170      0.093561      0.106817
O       0.01617      5.78184     15.64922         0.030539     -0.105809      0.190162
O       3.80397      5.71642      6.97135        -0.177566     -0.246452      0.377596
O      15.39380      5.71075      7.06397         0.176820      0.303627      0.495608
O       3.87002      5.75180     11.35851         0.787634      0.083792      0.470811
O       0.06512      5.70632     11.43788        -1.338467      0.403740      0.122757
O       3.72385      9.53270      2.77953         0.418003      0.589535     -0.132298
O       3.92149      9.56811     15.64495        -1.167436     -0.204383     -0.021278
O      15.43832      9.56318      2.65552         0.129044     -0.186027      0.107923
O      15.37912      9.67737     15.80003         1.059449     -0.296702     -0.235032
O       3.80929      9.59160      7.13563         0.398011      0.960339     -0.455061
O      15.40078      9.56202      7.03622         0.479777      0.498781      0.021972
O       3.85327      9.61266     11.31655         0.176811     -0.168351      0.598432
O       0.00176      9.78603     11.38938         0.227789     -0.381969      0.135199
O       7.68673      1.97867      2.79339         1.016666     -0.614728     -0.253343
O       7.63151      1.98765     15.77748         0.302150     -0.011917      0.576184
O       7.63842     13.42973      2.64658         0.432312     -0.038351      0.148686
O       7.57825     13.39927     15.80654         1.133988      0.330567     -0.136882
O       7.74843      1.85772      7.04740        -0.692996     -0.063438      0.015160
O       7.72341     13.50997      7.12924         0.044905     -0.104315     -0.228757
O       7.60002      1.85832     11.43987        -0.054930     -0.129482     -0.201912
O       7.75644     13.60060     11.26139        -0.593618     -0.360741      0.743529
O       7.77435      5.86553      2.58905        -1.093200     -0.141693      0.183903
O       7.70488      5.71091     15.72863        -0.135689      0.100761      0.340545
O       7.67368      5.79510      7.06226         1.224853      0.458500      0.324677
O       7.76851      5.75689     11.36873        -0.359109      0.230143      0.410678
O       7.65517      9.60513      2.65093         0.308198     -0.154602      0.241895
O       7.81312      9.78822     15.72118        -0.853308     -0.395412     -0.156411
O       7.77361      9.57722      7.04857        -1.196218     -0.057034      0.016242
O       7.72288      9.57530     11.34924         0.278955      0.398050      0.410521
O      11.61122      1.82755      2.64673        -0.327864      0.471008      0.245712
O      11.52943      1.99389     15.61798         0.470981     -0.324636      0.324318
O      11.54957     13.44899      2.64258        -0.177338      0.107653     -0.246125
O      11.60011     13.60496     15.70391         0.309683     -0.361931      0.166787
O      11.49704      1.96280      6.98734         1.327275     -0.604498      0.246382
O      11.64189     13.42470      7.06659        -0.755300      0.060641      0.155149
O      11.57508      1.89409     11.35037         0.406288     -0.034941      0.169368
O      11.50308     13.56653     11.27938         0.807852      0.020118      0.581138
O      11.57081      5.66128      2.70244         0.901278      0.673074      0.298503
O      11.60464      5.82486     15.64605        -0.037755     -0.231103      0.351682
O      11.60836      5.77216      7.09427        -0.778676     -0.232675     -0.622281
O      11.65831      5.68291     11.49723        -0.669110      0.331354     -0.206356
O      11.57075      9.61649      2.76763        -0.496305      0.168143     -0.323848
O      11.53200      9.69927     15.66086         0.852284     -0.300398      0.570700
O      11.60313      9.68340      6.94269         0.310709     -0.103972      0.521861
O      11.58110      9.63099     11.49106        -0.410900      0.366273      0.163366
O       1.66864      3.81849      2.56086         0.992632      0.017546      0.422706
O       2.08809      3.92292     15.64916        -0.577924     -0.463421      0.352267
O       1.92850     15.37518      2.72900         0.184970      0.436770     -0.088484
O       1.91736     15.41468     15.73637        -0.081714     -0.023141     -0.551242
O      13.59449      3.81844      2.59457        -0.263291     -0.058904      0.555357
O      13.57021      3.88448     15.78617         0.079716     -0.226577     -0.076939
O      13.45755     15.42014      2.68818        -0.034181     -0.717396     -0.142917
O      13.46678      0.04990     15.80677         0.594630     -0.706801     -0.419984
O       1.76982      3.80174      7.07098         0.678462      0.350104     -0.063776
O       1.92084     15.46047      6.90786         0.009726     -0.826806      0.529257
O      13.45234      3.77092      6.98242         0.215300      0.089879     -0.022265
O      13.41976     15.43813      6.95242         0.125544     -0.560190      0.548560
O       1.89908      3.87464     11.33741        -0.006926     -1.246912      0.308160
O       2.07623      0.00142     11.33348        -0.432076     -1.039674      0.339252
O      13.54427      3.77997     11.42982         0.643062     -0.172345     -0.202995
O      13.45824     15.45846     11.48607         0.578827     -1.057703     -0.076006
O       1.90892      7.68741      2.72885        -0.196539     -0.242851     -0.067652
O       1.88293      7.70603     15.58937        -0.293317      0.906806      0.488385
O      13.47488      7.68163      2.67072        -0.274972     -0.141165      0.171380
O      13.62227      7.71274     15.56872        -0.398570     -0.220784      0.398745
O       1.93745      7.68924      6.97512        -0.409034     -0.399744      0.200295
O      13.47763      7.71457      7.01292         0.160708      0.052354     -0.051064
O       1.97400      7.63686     11.45223        -0.516333      1.679565     -0.014711
O      13.57316      7.75048     11.49298         0.045553     -0.954598      0.116503
O       1.76712     11.51539      2.63226         1.141617      0.147063      0.036199
O       1.84064     11.56303     15.71175         0.430141      0.239843     -0.084684
O      13.52345     11.48513      2.60979        -0.273593      1.147910      0.084733
O      13.51936     11.55785     15.77167        -0.340580      0.789188      0.272679
O       1.88975     11.58027      6.97609        -0.027630     -0.120895      0.539608
O      13.52203     11.56763      7.05317         0.378186     -0.437314     -0.121220
O       2.04672     11.54015     11.31416        -0.578066      0.400223     -0.269528
O      13.39076     11.56472     11.47801         0.216512      1.352778      0.288988
O       5.85244      3.81630      2.69064        -0.485470      1.836049      0.308026
O       5.65099      3.83984     15.82086         0.303034      0.914984     -0.051519
O       5.81577      0.00153      2.85439        -0.746453     -0.682889     -0.636135
O       5.76491     15.45431     15.58275         0.204853     -0.718026      0.623844
O       5.83395      3.89798      7.09129        -0.276634     -1.302076      0.347585
O       5.81278     15.40720      7.14126        -0.417607      0.709341     -0.486598
O       5.88612      3.89387     11.46782        -0.748893     -0.837214     -0.612415
O       5.63183     15.41212     11.25272         0.285144      0.349919      0.736273
O       5.67545      7.66056      2.78281         0.363871     -0.240914      0.074743
O       5.96728      7.74637     15.74858        -0.638137     -0.581325     -0.691254
O       5.65637      7.73142      7.02754         0.704671      0.153370      0.408350
O       5.82871      7.71792     11.36255        -0.030319     -0.874085      0.421531
O       5.69064     11.49345      2.73973        -0.188919      0.230632      0.219499
O       5.64436     11.50148     15.78166         0.568096      0.341916     -0.086812
O       5.87873     11.58511      6.99646        -0.479529     -0.633482      0.032337
O       5.85082     11.52869     11.31468        -0.125692      0.761580      0.575723
O       9.66324      3.83270      2.70647        -0.032057     -0.090568      0.033591
O       9.62416      3.85652     15.63912         0.005157     -0.026107      0.694844
O       9.55775     15.41484      2.69959         0.264189     -0.107076     -0.166743
O       9.55205     15.45956     15.70005        -0.024604     -0.635961      0.509677
O       9.54895      3.77402      7.07636         0.212006      1.199592     -0.366718
O       9.69852     15.39974      7.00102         0.139236     -0.143569      0.203864
O       9.60331      3.72245     11.46455         0.017860      1.551850      0.303243
O       9.67862      0.07000     11.38787        -0.358828     -1.720550      0.301607
O       9.72864      7.75018      2.67044        -0.154983     -0.532019      0.194399
O       9.61007      7.67329     15.59157        -0.086281      0.805627      0.656577
O       9.67608      7.70450      7.01265        -0.095880     -0.390036      0.357665
O       9.67967      7.74202     11.29403         0.040359     -0.988655      0.703279
O       9.63109     11.55513      2.59392        -0.078767      0.088724      0.208158
O       9.67670     11.61919     15.74705         0.222548     -0.409602      0.225986
O       9.56144     11.51245      7.10250         0.406706      0.764042      0.060450
O       9.65453     11.59550     11.34344        -0.268867      1.746476      0.628352
