  # total energy = -7847.62608258 
CRSYTAL
PRIMVEC
    15.6080000000000005    0.0000000000000000    0.0000000000000000
     0.0000000000000000   15.6080000000000005    0.0000000000000000
     0.0000000000000000    0.0000000000000000   16.6239999999999988
PRESSURE
2.38131 0.954228 -2.94589 0.039407 0.007468 -0.003877
PRIMCOORD
320 1
Pb       3.89259      4.10729      4.21258        -0.237936     -0.207765     -0.616828
Pb       3.87662      4.08914      0.17250         0.132299     -1.035413      0.122371
Pb       3.96736      0.11951      4.40066        -0.302657     -0.184122     -1.022888
Pb       3.76258     15.41985     16.54205         1.160489      0.122972      0.418789
Pb       0.07783      4.01629      4.25376         0.255458     -0.479108      0.164056
Pb       0.04718      3.78719      0.03534         0.324731     -0.684205      0.133499
Pb      15.53459     15.50410      4.46961        -0.512382      0.294962     -0.727518
Pb       0.31680     15.42375     16.59629        -1.504439      1.409292      1.294992
Pb       3.90003      3.69418      8.31421         0.079325      0.787944      0.349076
Pb       3.82629      0.00451      8.27456        -0.043692     -0.452497      0.914225
Pb      15.41006      4.09110      8.16475         0.270011     -1.521795      0.333707
Pb      15.40447      0.17520      8.14147         0.206070     -0.457214      0.792039
Pb       4.09740      3.87584     12.39934        -0.057752     -0.151652     -0.212827
Pb       3.84061     15.57898     12.39538        -0.097329     -0.220531     -0.389191
Pb       0.00392      3.64775     12.60160        -0.411091      0.250404     -0.009878
Pb       0.06537      0.09447     12.32922        -0.137683     -0.092468     -0.292450
Pb       3.68775      7.88881      4.26219         0.522028     -0.271227      1.154746
Pb       3.60649      8.05203      0.12773         1.503370      0.091371     -0.441225
Pb      15.49222      7.95034      4.10172         0.899648      0.115340      1.640812
Pb       0.07184      7.91480      0.17522        -0.729820      0.867237     -0.194548
Pb       3.76792      7.92290      8.55382         0.807611      0.426790      0.191985
Pb       0.00658      7.52176      8.44021         0.137557      1.316780      0.369657
Pb       3.87100      7.77374     12.66636        -0.010105     -0.086951     -0.546708
Pb       0.23320      7.48554     12.76061        -1.068103      0.643351      0.439665
Pb       3.89302     11.76031      4.27137         0.761473     -0.191988     -0.094924
Pb       3.76215     11.76510     16.56988         1.251319      0.399304     -0.366876
Pb      15.50053     11.62042      4.62254        -0.836139      0.132015     -0.226368
Pb       0.07253     11.82578      0.01564        -2.575273     -1.599542      0.080850
Pb       3.93004     11.69870      8.64999        -0.775189     -0.578910      0.023594
Pb      15.52116     11.24642      8.29318        -0.236599      0.470839      0.661558
Pb       3.58326     11.82643     12.47628         0.542505      0.057191      0.068285
Pb      15.46935     11.71802     12.38850         0.414764      0.712067      0.795902
Pb       7.71621      4.14843      4.25708         0.396165     -1.136736     -0.465157
Pb       7.85253      3.65238      0.02195        -0.240845     -0.520146      0.211966
Pb       7.66470      0.14117      4.01544         1.512844      0.036748      0.488137
Pb       7.73397      0.21185      0.07714         0.537919     -0.540967      0.223158
Pb       7.89649      3.93738      8.64117        -0.222689     -0.264150     -0.128235
Pb       7.78037      0.21856      8.30569         0.766746     -0.356595      0.609558
Pb       7.97207      3.74869     12.64547        -1.389254      0.037327     -0.525353
Pb       7.65007     15.34238     12.63802         0.522360      0.435745      0.281240
Pb       7.77735      7.71902      3.93669         0.063848      0.559437      0.664573
Pb       7.86604      7.94759     16.37843        -0.911406     -0.854010      1.697230
Pb       7.91654      7.72427      8.30116        -0.689705     -0.063677     -0.503632
Pb       7.60559      7.69119     12.73156         0.101991     -0.575065     -0.874736
Pb       7.59878     11.92177      4.26964         0.218089     -1.057942     -0.642152
Pb       7.57721     11.33451     16.60797         1.671478      2.331265      0.102514
Pb       7.52403     11.89626      8.55539         0.313761     -1.199781     -0.184740
Pb       8.01427     12.00200     12.72110        -0.659968     -0.742910      0.912668
Pb      12.02813      4.00552      4.04202        -0.541585      0.309348     -0.240906
Pb      11.96375      3.79215      0.08458        -0.670669      0.121989     -0.600657
Pb      11.81584     15.52051      4.04369        -0.750810     -0.411545     -0.591528
Pb      12.05969     15.54213      0.23761        -0.967321     -0.981544      0.206917
Pb      11.59471      3.99611      8.35338         0.181626     -0.153215      0.305226
Pb      11.40870      0.20756      8.14830         0.638725     -0.731743      0.856490
Pb      11.78542      3.86069     12.70642         1.192609      0.758190     -0.091860
Pb      11.71318      0.00486     12.17956        -0.122775     -1.404905      0.508757
Pb      11.65822      7.70507      4.12269        -0.836608     -0.572717     -0.742133
Pb      11.91487      7.72541     16.53919        -1.515008      0.429743      0.308314
Pb      11.56730      7.78742      8.32229         0.116276     -0.155016      1.155405
Pb      11.70670      7.76154     12.40517         0.048293     -0.469924      0.373612
Pb      11.62628     11.70409      4.34797        -0.712059      0.293193     -0.647259
Pb      11.73844     11.64597      0.18491        -0.779912      0.671699     -0.122609
Pb      11.74365     11.15146      8.16405        -0.556564      1.550765      1.261743
Pb      11.41476     11.54126     12.19760         0.951445      0.685501      0.944233
Ti       1.93871      1.91076      2.25219         0.022174     -0.388445     -0.903426
Ti       2.12727      1.94705     14.70009        -0.607807     -1.163422      0.065712
Ti       1.87742     13.53180      2.37411         1.356088      2.171855      0.010153
Ti       1.72345     13.69548     14.64423         2.032047     -0.532112     -3.054654
Ti      13.69311      1.95596      1.96341         1.378616     -1.967086      0.241690
Ti      13.77999      1.82693     14.47760        -1.103298      1.369950      2.596424
Ti      13.80230     13.47612      2.08695        -2.457368      2.330920      0.598856
Ti      13.51997     13.68596     14.26045        -1.011221     -0.681805      0.641321
Ti       2.08740      1.96701      6.28327        -2.241623      0.735097     -1.241338
Ti       1.88866     13.70074      6.40601        -0.415204     -0.656838      1.559791
Ti      13.60597      1.89472      6.11687        -0.394091      2.125326     -0.351149
Ti      13.33501     13.66726      6.48265         1.555455     -0.571020     -0.681997
Ti       1.88309      1.97099     10.27677         1.922222      0.740977     -0.321712
Ti       1.70294     13.76603     10.41674         2.202525     -0.336204     -0.299155
Ti      13.50523      1.94163     10.28115         3.258223      0.448130      0.979698
Ti      13.65255     13.53018     10.20766        -0.008220     -0.210271     -0.884141
Ti       1.86206      6.03264      2.35330         0.617121     -1.313817      0.094038
Ti       1.91541      5.82524     14.97116         0.295731     -0.639980     -0.574135
Ti      13.87635      6.00117      2.28351        -4.200635     -1.287432      0.108356
Ti      13.75360      5.95099     14.93758        -0.835632     -0.566747     -3.947511
Ti       1.97652      5.95882      6.58260         1.313679      0.389989     -3.202162
Ti      13.81349      5.87726      6.32374        -1.327886     -3.014160     -1.674442
Ti       1.94490      5.78460     10.60918         1.446749      0.007527      0.966671
Ti      13.75644      5.88260     10.73625        -1.999946     -1.593395      1.233097
Ti       1.90463      9.96920      2.29607        -2.330150     -0.946856      0.000979
Ti       1.80347      9.78533     14.79751         0.494315      0.456898     -1.571990
Ti      13.49634      9.69619      2.19786         0.221913      2.769152     -0.498293
Ti      13.52540      9.82160     14.78482         0.463134     -2.038110     -0.048930
Ti       2.04930      9.90012      6.40370        -0.754332     -1.661230      0.989756
Ti      13.63675      9.44587      6.33867         0.572647      1.548859      0.924262
Ti       1.90393      9.66247     10.83968         2.518953     -0.272882     -1.713436
Ti      13.75414      9.65830     10.77913        -1.486978      0.567294     -2.095125
Ti       5.72278      1.83439      2.18430        -0.012429      1.566388     -1.505786
Ti       5.84202      1.83646     14.64712        -0.397125      0.292926     -0.923344
Ti       5.79335     13.69096      2.30958        -1.342200     -1.763164     -1.458845
Ti       5.75423     13.48701     14.77392        -0.670803      0.100708      1.302075
Ti       5.88030      1.90444      6.36663         1.956703      1.027891     -0.786792
Ti       5.68586     13.58144      6.49346         1.355279     -0.173534     -0.090330
Ti       5.77063      1.92743     10.27831         0.827139     -0.862764      1.699743
Ti       5.77602     13.63627     10.65389        -1.304141      0.710159     -1.373831
Ti       5.74594      5.87549      2.00785         0.625564      0.109017     -0.132683
Ti       5.77731      5.76870     14.55098         0.177237     -0.795803      0.631514
Ti       5.92283      5.78329      6.15123        -0.365740      1.720689      2.449780
Ti       5.76897      5.80852     10.40062         1.268233      0.274755      2.172668
Ti       5.80359      9.70629      2.27107         1.720185      1.116509     -0.057616
Ti       5.75444      9.60741     14.46806        -0.596243      1.598764      0.821852
Ti       5.81643      9.64744      6.21712         0.985694     -1.285108     -0.327144
Ti       5.80866      9.64548     10.55913        -1.352177     -0.633690     -1.361014
Ti       9.83913      1.98904      2.32343        -0.931258     -1.308796      0.346958
Ti       9.97031      1.95040     14.61309        -0.706239     -1.830749      2.286930
Ti       9.72329     13.69043      2.10652         2.622514     -0.361752     -1.667329
Ti       9.77646     13.77409     14.69521        -1.764113     -0.697838      1.453671
Ti       9.78413      1.98463      6.36329        -1.038573     -1.528890     -1.495716
Ti       9.57203     13.51935      6.16702         2.015869      0.445989     -0.237545
Ti       9.79663      1.84882     10.73555        -2.743419      0.423230     -1.477665
Ti       9.67823     13.50716     10.33858         0.170339      1.112846      0.132185
Ti       9.63332      5.76623      2.00109         2.465032      0.851361      1.918252
Ti       9.71591      5.76193     14.57426         1.365056      1.130777      0.593189
Ti       9.91939      5.61519      6.12945        -0.421390      2.076037     -0.363817
Ti       9.70490      5.80294     10.60875        -0.510816      0.549904     -1.051609
Ti       9.69537      9.72943      2.24269        -0.758166      0.444404     -0.744730
Ti       9.73316      9.52047     14.46428         0.395342      2.400276      1.317330
Ti       9.69854      9.46762      6.16052        -0.326605      1.585022     -0.564167
Ti       9.55442      9.63123     10.53697         0.814719     -0.421134     -1.393143
O       1.88532      1.73741      0.21715         0.222327     -0.559718      0.831682
O       1.93836      2.12741     12.89586         0.223742     -0.399502     -0.527695
O       1.60055     13.35045     16.48167         1.988769      1.817110      1.107922
O       1.81849     13.68735     12.59225         0.102866     -0.482147      0.019517
O      13.44459      1.79431     16.52005         0.816497      1.650709      3.375588
O      13.67038      2.07838     12.72871        -0.061582     -0.002466     -2.094743
O      13.89913     13.72089      0.32445        -0.776616     -0.728287     -1.607810
O      13.59129     13.26530     12.49037        -0.537525      0.569770      1.020971
O       2.12913      1.81480      4.27608        -0.068326      0.549296      2.267957
O       2.03750     13.24991      4.18425        -0.299151      0.706694      0.856713
O      13.50065      1.88770      4.31038         1.281304     -0.096787     -0.209548
O      13.69130     13.82608      4.47635        -0.399369     -0.304118      0.179661
O       2.04836      2.02023      8.43407        -0.086716     -0.684526     -0.937859
O       1.89471     13.99994      8.45458        -0.141589     -0.630872      0.054573
O      13.63420      2.13595      8.50732        -0.209968     -0.393596     -1.174668
O      13.83419     13.99800      8.39178        -0.356489     -1.043540      0.195756
O       1.68623      5.70460      0.28423         0.992196      1.290598     -1.043995
O       1.97658      6.08408     12.52179        -0.543690     -1.876236     -1.772106
O      13.89019      6.16364      0.03688         0.031286     -0.318867      2.739187
O      13.78182      5.68889     12.57180        -0.023666      1.109856     -1.454472
O       1.84788      5.84151      4.17182         0.166766     -0.363619     -0.572223
O      13.88556      5.82624      4.19988         0.504311      0.204403     -0.486902
O       2.10878      5.93201      8.32692        -0.373187     -0.065017      2.293163
O      13.81765      5.73750      8.09703        -1.115860      0.586183      3.068241
O       1.93525      9.66006      0.10500         0.002393     -0.183444     -0.460271
O       1.96738      9.51195     12.62643        -0.668508      0.638863      0.744097
O      13.43736      9.70610      0.09784         0.444633     -0.372813      0.789171
O      13.42468      9.66534     12.53176         1.073046      1.271266      0.019239
O       1.88076     10.11554      4.36267         0.055864     -0.461362     -1.899575
O      13.78512      9.82135      4.18419        -0.423224     -0.430011      0.285287
O       2.05091      9.53756      8.30530        -0.114584      0.342310     -0.951843
O      13.81326      9.50350      8.29500        -0.464684     -0.151807     -1.366280
O       5.72855      1.87502      0.33049         0.156274     -0.116841     -0.093378
O       5.86902      2.06603     12.74641         0.047050     -0.484730      1.087749
O       5.57034     13.41123      0.09373         1.159313      0.341960     -0.323953
O       5.67562     13.53610     12.42442         0.134480     -0.034736      1.555152
O       5.90800      1.78750      4.49592        -0.470868      0.356555     -0.158715
O       5.64963     13.47014      4.22036         0.645294      0.845271      0.476509
O       5.97512      1.90288      8.48681        -0.665008     -0.257520     -1.143166
O       5.77147     13.40376      8.54101         0.048491      1.010954     -2.114857
O       5.82503      6.04229      0.18478        -0.385105     -0.963603      1.929051
O       5.92824      5.53006     12.77553        -0.248838      0.153418     -0.050731
O       5.89477      5.75109      4.40985        -0.555778     -0.297936     -2.277726
O       5.99859      5.77923      8.70936        -0.372483      0.107591     -2.738132
O       6.24307      9.70854      0.10464        -2.553136     -1.640079      1.385649
O       5.45207      9.80838     12.71158         2.234240     -0.365128     -0.270994
O       5.74418      9.61350      4.32103        -0.063403      0.514909      0.299956
O       5.67328      9.43680      8.62053         0.146166      0.458196     -0.029808
O       9.84690      2.14573      0.09377        -0.336923      0.205689      0.300671
O       9.68785      1.69232     12.61969         0.423520      0.621817     -0.417129
O       9.92988     13.68761      0.14250        -1.123910     -0.300066      0.449149
O       9.73564     13.85799     12.75733        -0.970849     -0.651758     -1.657996
O       9.67155      1.68831      4.30946        -0.116401      0.689384     -0.212701
O       9.99125     13.63210      4.34648        -0.579269     -0.039704      1.822810
O       9.87463      1.98220      8.36359         0.388330      0.326587      0.268998
O       9.56907     13.46621      8.59914        -0.044068     -0.188333     -0.263285
O       9.94418      5.77163      0.28454        -0.950425     -0.648732     -1.075787
O      10.06449      6.03023     12.82491        -0.761033     -0.633210     -1.728353
O       9.85188      5.80301      4.36854        -0.382870      0.076593      0.896161
O       9.51420      5.69643      8.73092         1.323129     -0.013092      0.009341
O       9.60796      9.73117      0.38577        -0.074647      0.160360      0.185904
O       9.77802      9.35999     12.70138        -0.030288      0.602658     -1.768187
O       9.86474      9.59757      4.31488         0.206687     -0.448971      0.768899
O       9.84676      9.56425      8.72600        -0.283706      0.031957     -0.740870
O       3.90446      1.72132      2.43352         0.249072      0.033324     -0.152257
O       3.98306      1.58190     14.89923        -1.372530      0.954074     -0.443821
O       3.97121     13.72600      1.97591        -0.863342     -0.457877      1.009140
O       3.73970     13.74961     14.66167        -0.821855     -0.542886     -0.003946
O       0.04937      2.09205      2.35868        -1.855543     -0.174717     -0.169279
O      15.50997      1.96925     14.86476         1.300356      0.003649     -0.480159
O       0.05119     13.45320      2.19935         1.436699     -0.900396      0.562983
O      15.27181     13.56206     14.59096         1.615621     -0.059520     -0.210545
O       4.04379      1.85841      6.69448        -1.480815      0.822440     -0.656598
O       3.91812     13.40782      6.35397        -0.669678     -0.087425     -0.012413
O       0.10443      1.67512      6.36191         0.729347      1.031419     -0.563551
O       0.10271     13.89539      6.29240         0.699345     -0.265931      0.017688
O       3.86369      1.91580     10.54930         0.346924     -0.213957      0.010516
O       3.82546     13.92261     10.58467        -0.575390     -0.799921     -0.222049
O       0.20642      1.95006     10.71654        -2.990246      0.920004      0.395554
O      15.51526     13.57994     10.88731         0.750933     -0.287654     -1.188898
O       3.78276      5.73285      2.25961         0.781973      1.028707     -0.200362
O       3.84369      5.74132     14.59375        -0.335119     -0.411570      0.927587
O      15.59776      5.68707      2.31550         2.359683     -0.036953     -0.573866
O       0.10622      5.68620     14.60583        -0.147476      0.174418      0.102579
O       3.88758      6.10230      6.19481        -0.373342     -0.716963      0.027130
O       0.05734      5.86346      6.49567         0.892791     -0.178531     -0.530125
O       3.97817      5.78156     10.89162        -1.965128     -0.350434     -0.972603
O       0.02602      5.92866     10.40160         0.531284     -0.274347     -0.257768
O       4.01464      9.58096      1.94882        -1.782472     -0.467032      0.118216
O       3.78509      9.60467     14.60304        -0.110539     -0.715849      1.773941
O      15.58593     10.20975      1.89806         2.031800     -0.829927      1.298393
O      15.54485      9.78015     14.77762         1.066723     -0.037076     -0.136665
O       3.90812      9.77848      6.18096        -0.805147     -0.088531      0.519936
O      15.54747      9.87799      6.35243        -0.377121     -0.419733     -0.652329
O       3.93515      9.56065     10.80245        -1.736833     -0.175928     -0.885461
O       0.12175      9.93099     10.61570        -2.305562     -0.170297     -0.023284
O       7.81221      2.00763      2.01240         0.593992     -0.299802      0.714115
O       7.64180      1.88039     14.93436         1.791054      0.248174      0.094888
O       8.00571     13.98893      2.32482        -3.675085     -1.520179      0.361868
O       7.55389     13.66943     14.43172         1.570136     -0.423311     -0.267130
O       7.85976      1.64406      6.53834        -1.510438      0.634174     -0.393673
O       7.79377     13.73279      6.14658        -0.751223     -0.334594      0.654811
O       7.90159      2.04075     10.34413         0.232973     -0.714679      0.686587
O       7.67816     13.50414     10.58624         0.898174      0.357770      0.062575
O       7.83570      5.67125      2.47208        -1.309517      0.324277     -0.997451
O       7.87273      5.92475     14.46366        -0.310084     -0.892886      0.688566
O       7.76081      5.91724      6.27588         1.241271     -0.499268      0.196395
O       7.75228      5.88253     10.70785         2.199996     -0.821695      0.906784
O       7.71364      9.89039      2.49266         1.934805     -1.279761     -0.197407
O       7.75317      9.40491     14.63785        -0.513722      1.367279     -0.750276
O       7.92536      9.40649      6.34035        -0.681633      0.181565      0.281298
O       7.71702      9.56653     10.49768         0.282240      0.144728      0.706176
O      11.80133      1.72392      2.39146         0.415033      1.073201     -1.154478
O      11.69949      2.21215     14.83528         0.397280     -0.545253     -1.672607
O      11.75855     13.74847      2.15241         1.175828      0.577394      0.581093
O      11.45037     13.53190     14.65472         4.661547     -0.316284     -0.212042
O      11.64788      2.09916      6.26411         1.178680     -0.252656      0.788180
O      11.57817     13.59149      6.66263        -0.039574      0.224457     -0.291746
O      11.77998      1.84099     10.69531        -1.922430      0.077647     -0.056484
O      11.85644     13.44882     10.54318        -2.230495      0.630902      0.113152
O      11.89653      5.95715      2.47005        -0.009223      0.634774     -0.489888
O      11.70676      6.07435     14.88330         0.838709     -0.677514     -0.269399
O      11.90951      5.61913      6.06201        -2.440368     -0.207511      1.141803
O      11.84243      5.85631     10.58058        -0.480163     -0.415345     -0.286325
O      11.66593      9.39113      2.21855         1.218744      0.982155      0.378166
O      11.66255      9.49475     14.72318        -1.080357      0.075910     -0.049533
O      11.69672      9.57698      6.51927         1.433323     -0.685657     -0.491479
O      11.68703     10.12201     10.47706         0.739929     -1.323214      0.545138
O       2.04151      3.71214      2.19457         0.394265      1.417908      0.211108
O       1.88620      3.64336     15.17605         0.781725      2.942798     -0.507995
O       1.85946     15.41623      2.31623        -0.120318     -1.101534     -0.216924
O       1.74117     15.54685     14.62236        -0.155795     -0.287940      0.544449
O      13.57370      4.05808      1.97775         0.255771     -1.592485      0.102952
O      13.63975      4.09069     14.61410        -0.350314     -0.641858      0.907063
O      13.90947      0.01677      1.96814        -0.560784      1.764617      0.956268
O      13.45989      0.05506     14.57212        -0.272640     -3.172916     -0.819805
O       1.85897      3.97122      6.29817         0.867539     -1.345386      0.085876
O       2.27867      0.04523      6.27903        -0.216320     -1.304152      0.141444
O      13.83958      3.87570      6.22209         0.763030     -1.111855      0.070231
O      13.74982      0.09621      6.41586        -1.044816     -0.726419      0.131650
O       2.10172      3.89746     10.33371        -0.507005      1.511503      0.711838
O       1.79234      0.08910     10.65881         0.402568     -1.664591      0.169092
O      13.71888      3.80355     10.58109         0.132869      1.103390     -0.192527
O      13.93141      0.04966     10.49541        -0.884762     -0.056512      0.683458
O       1.65628      7.94997      2.39692         0.879944     -0.860408     -0.807829
O       1.87749      7.58043     14.47975        -0.047692      1.610890      2.052574
O      14.08709      7.98934      2.14295        -0.042677     -2.168716     -0.122427
O      13.82963      7.90449     14.56673         0.043655     -2.090390      0.450929
O       1.66086      7.79436      5.99688         1.165719      0.673237      0.761373
O      13.64042      7.63025      6.10988         0.107468      3.317132     -0.015628
O       1.94531      7.84271     10.37283        -0.217582     -1.054049      0.224877
O      13.62438      7.86512     10.43313         0.537654     -0.476648      0.423255
O       2.52936     11.54856      1.95128        -1.179054      2.579840      0.771124
O       1.94837     11.63827     14.54322        -0.416927     -0.504256      0.001753
O      13.45982     11.73345      2.17211        -0.453009     -2.206315      0.151140
O      13.44359     11.55152     14.90444         0.012997      3.505126     -0.915041
O       1.79046     11.72320      6.75262         0.559580      1.094554     -1.450017
O      13.56057     11.80101      6.47100         0.565929     -0.388999     -0.045472
O       2.20335     11.70915     10.37588        -0.731267      0.412419      0.762897
O      13.74030     11.64111      9.88675         0.439461      0.616087      1.778013
O       5.70571      3.81713      2.37974        -0.005964      1.267340     -0.157500
O       5.93144      3.88823     14.98861        -0.559074     -0.264885     -0.014281
O       5.87580     15.52583      2.20687         0.546227      0.741165      0.588511
O       5.84971     15.35709     14.85682        -0.144083      2.827662     -0.218790
O       5.84434      3.87199      6.51151        -0.157062     -0.643646     -0.360237
O       5.68156     15.45558      6.35228         0.167909     -0.219806      0.830161
O       5.82861      3.72322     10.51452        -0.281911      1.769904      0.413871
O       5.79089      0.03613     10.52610         0.671754     -1.115165      0.490715
O       5.83976      7.77333      2.55088         0.135897     -1.831765     -1.128531
O       5.88693      7.70602     14.76840        -0.763344     -0.260604     -0.832872
O       5.93647      7.80384      6.39117        -0.671552     -0.368137      0.126025
O       5.74746      7.61475     10.85685         0.455356      1.428844      0.122396
O       5.98096     11.66810      2.42054        -0.744353      0.063060     -0.582229
O       5.68329     11.58917     14.82541         0.508647     -0.796678     -0.688287
O       6.13489     11.53767      6.34645        -0.325362      1.284368      0.433978
O       5.51592     11.49637     10.24568         1.358171      1.686332      1.513076
O       9.95623      3.91322      2.62248        -0.261076     -0.505468     -1.297966
O       9.78334      3.82825     14.35276        -0.857781      1.090717      0.433457
O       9.81631     15.59285      2.25579         0.421697      1.955541      0.020304
O       9.73802      0.05679     14.68679        -0.266376      0.513083      0.425694
O       9.48759      3.81104      6.38840         0.536622      1.153256      0.105195
O       9.87393     15.56652      6.61533        -0.802618     -0.965250     -0.656698
O       9.80127      3.77082     10.55140         0.507020      1.126358      0.979314
O       9.73654     15.57997     10.41398         0.693823     -0.934017      0.271551
O       9.77523      7.72522      2.42430        -0.940658     -0.520038     -0.200967
O       9.55980      7.75349     14.90110         1.485070     -0.860873     -0.133359
O       9.96000      7.55713      6.76534        -0.501610     -0.338457     -1.172509
O       9.90804      7.75084     10.56012         0.020856     -0.847075      0.531089
O       9.91543     11.78394      2.52951        -0.018275     -1.790923     -0.562000
O       9.36182     11.58529     14.66054         0.734351     -0.537257     -0.533409
O       9.81310     11.39346      6.37139        -0.216249      1.862209     -0.219667
O       9.47533     11.61214     10.81303         0.847295      0.713534     -0.176350
