  # total energy = -7876.74539975 
CRSYTAL
PRIMVEC
    15.464    0.0000000000000000    0.0000000000000000
     0.0000000000000000   15.464    0.0000000000000000
     0.0000000000000000    0.0000000000000000   17.350608
PRESSURE
0.319985 0.830582 6.75045 -0.309692 -0.065163 0.076894
PRIMCOORD
320 1
Pb       4.02874      3.86556      4.49662        -0.565660      0.371705     -1.390097
Pb       4.07636      3.75399     17.10749        -0.940819      0.912513      1.580047
Pb       3.78328      0.22725      4.26932         0.005798     -0.878002     -0.373813
Pb       4.03665      0.11835     17.25200        -1.109078     -0.832528      0.628470
Pb       0.20997      3.81382      4.49453        -0.309207      0.579170     -1.158060
Pb      15.38967      3.64155     17.28873         0.295338      1.216021     -0.241267
Pb      15.33621     15.44415      4.13925         0.305043     -0.212055     -0.161406
Pb      15.38589      0.00072     17.33796         0.480293      0.125215     -0.727381
Pb       3.83458      3.92737      8.60115         0.086047     -0.603001      0.091692
Pb       3.87739     15.35097      8.54654        -0.116707      0.031908     -0.083316
Pb      15.34823      3.75127      8.52691         0.357631      0.127597      0.647327
Pb      15.33048     15.39001      8.58208        -0.169600     -0.015758      0.098148
Pb       3.74569      3.72544     12.84153         1.048005      0.120982      0.203272
Pb       3.97932     15.27850     13.05088        -0.218261      0.023832     -0.388160
Pb       0.09301      4.00129     12.91180        -0.782052     -0.728297      0.238036
Pb       0.08791      0.16195     12.93122        -0.553750     -0.884671      0.472682
Pb       3.71158      7.83160      4.20912         0.310496     -0.019130      0.256342
Pb       3.60272      7.62880      0.00002         1.061357      0.047826      0.875403
Pb      15.30243      7.72102      4.22850         0.757809     -0.165037      0.395195
Pb      15.39025      7.69660     17.23745        -0.153624     -0.173645      0.383889
Pb       4.00804      7.88650      8.65496        -0.165360     -0.223261     -0.275528
Pb       0.20875      7.56821      8.80852        -0.686206      0.402305     -0.529057
Pb       3.88173      7.67181     12.85042         0.453584      0.196431      1.119015
Pb       0.08534      7.91715     12.82302        -0.279153     -0.703794      1.398100
Pb       3.94412     11.68940      4.31103        -0.502975     -0.927078      0.081424
Pb       3.98623     11.53515     17.29703        -0.704784      0.030284      0.289985
Pb      15.25052     11.64456      4.31825         0.535627     -0.517052      0.011871
Pb      15.46149     11.64108     17.25608         0.159232     -0.770461     -0.089783
Pb       3.84869     11.61691      8.72847        -0.293072      0.028831     -0.999208
Pb      15.24099     11.54070      8.50438         1.135818     -0.016627      0.946057
Pb       3.83800     11.45076     13.02856        -0.229723      0.641405     -0.221869
Pb      15.39584     11.73657     12.74465         0.183425     -0.091634      0.597105
Pb       7.68367      3.77874      4.44461        -0.236642      0.698453     -1.133461
Pb       7.78658      3.87671     17.32141        -0.417610      0.228743     -0.116269
Pb       7.84024     15.44657      4.21918        -0.333979     -0.626611      0.699577
Pb       7.60427      0.07223      0.12195         0.531834     -0.909723     -0.802971
Pb       7.83795      3.94743      8.51981        -0.899954     -0.533654      0.201620
Pb       7.73798      0.11614      8.59238        -0.121845     -0.314608     -0.145636
Pb       7.79097      3.75777     12.95505        -0.634307     -0.302899     -0.617762
Pb       7.98497      0.01494     13.13602        -1.577373     -0.500767     -1.094940
Pb       7.72776      7.88448      4.29174        -0.512784     -1.037953      0.446112
Pb       7.82581      7.71107     17.34924        -0.662419     -0.447287      0.121051
Pb       7.90154      7.64133      8.70827        -1.051872      0.887629     -0.145969
Pb       7.70231      7.65071     13.00044        -0.711871      0.808499     -0.353510
Pb       7.74670     11.65701      4.31454        -0.689245     -0.638922     -0.168266
Pb       7.64130     11.42690     17.30303         0.390952      0.289293      0.140590
Pb       7.60709     11.73980      8.50745        -0.213978     -1.411636      0.370565
Pb       7.76232     11.46777     12.91426        -0.119617      0.107348     -0.021510
Pb      11.36564      3.77549      4.49917         0.906443      0.669595     -0.897146
Pb      11.48739      3.96336      0.00213         0.715481      0.006607     -0.413810
Pb      11.65588     15.35003      4.32880        -0.139113      0.097323     -0.590146
Pb      11.54302      0.07832      0.13986         0.148620     -0.091550     -0.783977
Pb      11.71297      3.92443      8.80146         0.052800     -0.459424     -0.447982
Pb      11.40704     15.35913      8.45399         0.562361      0.343000      0.237968
Pb      11.65197      3.90644     13.09446         0.542917     -0.697905     -0.054139
Pb      11.50457     15.32959     13.17701         0.849710      0.229446     -0.721452
Pb      11.59247      7.64987      4.18690         0.097403      0.236820     -0.082119
Pb      11.58229      7.62499     17.22076         0.168562      0.428411     -0.191763
Pb      11.56454      7.54029      8.78599         0.400400      0.615609     -0.415163
Pb      11.38029      7.64816     13.05598         0.972456      0.685931      0.365216
Pb      11.50316     11.61853      4.29301        -0.133964     -0.417598     -0.449962
Pb      11.47656     11.71090     17.26051         0.449827     -1.105424     -0.089023
Pb      11.26966     11.52014      8.53221         0.771483     -0.347586      0.108560
Pb      11.60628     11.65982     12.74057         0.067813     -0.061584      0.926740
Ti       1.91707      1.93258      2.23813         0.888706      0.511808      2.759090
Ti       1.95204      1.92416     15.25877        -0.879514      0.062387      4.678512
Ti       1.82646     13.42959      2.29147         1.486825      0.557108      1.826217
Ti       2.02382     13.55249     15.33826        -0.836769     -0.029624      1.509989
Ti      13.53104      2.01207      2.35853        -0.465900     -0.554707      0.591559
Ti      13.45623      1.85758     15.35781         0.646228      0.995580     -1.004321
Ti      13.41317     13.41040      2.16962        -0.354486      1.162349      2.175747
Ti      13.60291     13.46927     15.29978        -0.887226      0.418778      2.993078
Ti       1.87681      1.90042      6.62500         0.987230      0.131064      0.656039
Ti       1.83761     13.50716      6.61952         0.600285     -1.371848      2.475877
Ti      13.46842      1.87127      6.61125        -0.484408     -0.273173      3.121676
Ti      13.45944     13.38442      6.64206        -0.325925      0.806704      1.068496
Ti       1.93396      1.81398     10.86608         0.029970      0.142487      1.712446
Ti       1.92679     13.52122     11.01845        -0.015825     -0.888845      0.973276
Ti      13.54325      1.86579     11.07284         0.392829      0.299682      0.201902
Ti      13.45202     13.58852     10.80403         1.012940     -0.096856      1.675210
Ti       1.93942      5.74937      2.34398        -0.095005      0.093702      0.944301
Ti       1.98691      5.80169     15.33737        -1.142921     -1.469231      1.864378
Ti      13.50732      5.72956      2.40009         0.456168     -0.272820      1.848136
Ti      13.52155      5.76314     15.28008         0.847746     -0.590978      2.872366
Ti       1.89671      5.81191      6.68153        -0.117389      0.105711      3.864199
Ti      13.48455      5.77961      6.72415         0.397538     -0.034383     -0.945763
Ti       1.99604      5.74495     10.95309        -0.130345     -0.180821      1.709188
Ti      13.55755      5.82805     11.11333        -0.185436     -1.667850      0.225833
Ti       1.78052      9.71021      2.39271         1.062119     -1.148568     -0.578701
Ti       1.95137      9.66247     15.36181        -1.087898      0.079884      1.285700
Ti      13.41212      9.71897      2.23308         0.005233     -1.547649      0.600418
Ti      13.53990      9.67327     15.18498        -0.434252     -0.203195      3.179854
Ti       1.82571      9.62921      6.69418         1.075774      0.822805      0.631493
Ti      13.44478      9.49020      6.73054         0.371444      0.674277      0.978027
Ti       1.95290      9.56022     10.87320        -0.245759      3.148663      1.666664
Ti      13.53924      9.57688     11.00852        -0.919299      0.726414      1.716376
Ti       5.84382      1.86666      2.36890        -1.225133      1.300321      2.101584
Ti       5.80075      1.86756     15.19529         0.626353      0.220367      1.094821
Ti       5.73254     13.49188      2.33079        -0.698954     -0.058927      1.190296
Ti       5.82197     13.45628     15.30293         0.854684      0.125623      2.567741
Ti       5.74616      1.90286      6.63187         0.025678     -0.371149      2.128787
Ti       5.75181     13.53189      6.46695        -0.001491     -0.608070      2.632458
Ti       5.77148      1.73183     11.02056         0.962922      1.270811      2.442323
Ti       5.85483     13.45437     10.98264         0.076244      0.637131      1.709384
Ti       5.79424      5.84701      2.38200        -0.870203     -0.482406      1.438765
Ti       5.78340      5.79099     15.25797         0.349478      0.346901      2.947952
Ti       5.69756      5.86770      6.65723         0.590762      0.021866      1.075725
Ti       5.83286      5.69115     11.01168         0.049788      0.117200      0.428411
Ti       5.75712      9.61681      2.35347        -0.904544      0.361030      0.301191
Ti       5.76343      9.54379     15.45337         0.360142     -1.280473      0.105039
Ti       5.74887      9.65077      6.63128         0.372152      0.883757      0.119608
Ti       5.75962      9.66125     11.00126         1.604533      0.327032      0.589651
Ti       9.73542      1.90486      2.38398        -0.406526      0.071063      2.444167
Ti       9.59273      1.86019     15.42420         0.324139     -0.162562      1.111011
Ti       9.56927     13.40846      2.19930         0.139063      0.229283      1.444209
Ti       9.65614     13.50131     15.38248        -1.014034      0.252258      1.477808
Ti       9.68644      2.02932      6.57429        -0.141197     -2.148038      2.589469
Ti       9.57382     13.45545      6.53028        -0.470575      0.631796      3.410639
Ti       9.80929      1.92297     10.95295        -1.575529     -0.595020      3.395389
Ti       9.62153     13.51233     10.83195        -1.027970      0.326991      3.114158
Ti       9.59432      5.80049      2.30260         0.025676     -0.291739      0.023890
Ti       9.56647      5.75501     15.23993         0.564593      0.419135      2.155373
Ti       9.65945      5.83946      6.58382         0.324201     -0.255375     -0.701989
Ti       9.75160      5.74573     11.10435        -1.643100     -0.333324      0.348224
Ti       9.56186      9.59782      2.30191         0.266708      0.377113      0.439662
Ti       9.64925      9.63362     15.29656         0.110369     -0.197542      1.925002
Ti       9.65167      9.52167      6.59161        -1.515338      1.322462      3.238951
Ti       9.78882      9.57192     10.93378        -1.718704      1.763203      1.714650
O       1.94406      1.97525      0.57390        -0.027171     -0.203780     -2.239102
O       1.90480      1.81896     13.63286         0.106976      0.348615     -4.191994
O       1.96411     13.38138      0.62191        -0.091759      0.135230     -1.820812
O       1.95083     13.60245     13.64019        -0.044076     -0.394793     -1.627337
O      13.46990      1.91543      0.62613        -0.085300     -0.065760     -1.082522
O      13.60649      1.96847     13.57605        -0.494795     -0.368212      0.327460
O      13.35715     13.43753      0.47998         0.223866      0.296519     -1.261858
O      13.59869     13.60950     13.64718        -0.355145      0.028122     -2.648708
O       1.99434      2.02327      4.86812        -0.536291     -0.520729      0.097984
O       1.65794     13.38715      4.96063         0.108433      0.240767     -2.115254
O      13.43061      1.89883      4.95941        -0.041142     -0.321120     -3.158356
O      13.41112     13.40246      4.89725         0.055048      0.041955     -0.963341
O       1.86713      1.90063      9.18398        -0.167363     -0.142663     -1.958432
O       2.01213     13.39569      9.33151         0.020944      0.567524     -1.673736
O      13.59749      1.82467      9.30175        -0.289603      0.288954      0.047837
O      13.50497     13.69414      9.08820        -0.178109     -0.540657     -0.755723
O       2.04773      5.73691      0.63533        -0.234000      0.182747     -1.482944
O       1.97275      5.95371     13.64990        -0.107862     -0.297115     -2.185792
O      13.49685      5.67744      0.72760        -0.119250     -0.015527     -2.472482
O      13.50710      5.65741     13.61383         0.113997     -0.094810     -3.403122
O       1.85089      5.73537      5.05769        -0.213940     -0.063057     -3.764014
O      13.50519      5.84279      4.95449        -0.259606     -0.020967      0.773978
O       2.02039      5.69601      9.27280        -0.075878      0.344712     -1.537195
O      13.37464      5.55959      9.38341        -0.203945      0.775421     -1.098872
O       1.89952      9.52005      0.65071        -0.238736      0.562226     -0.523246
O       1.78329      9.70593     13.65995         0.069228     -0.490499     -1.450100
O      13.46096      9.64190      0.54577         0.032421     -0.056354     -1.003568
O      13.60146      9.62802     13.50309         0.150298      0.108213     -1.715766
O       1.96326      9.61258      4.97107        -0.357102      0.147757     -0.869922
O      13.58189      9.45629      5.03676        -0.593100      0.298720     -1.384345
O       1.89242      9.61052      9.19419         0.217045      0.023946     -1.717919
O      13.39957      9.63325      9.35511        -0.104865     -0.176373     -2.714360
O       5.88451      1.74068      0.67047         0.006771      0.630704     -2.042266
O       5.76367      1.87265     13.48123         0.028018      0.140924     -0.176513
O       5.68687     13.54836      0.60582        -0.024402     -0.113950     -0.990325
O       5.68332     13.68474     13.65996         0.225315     -0.653855     -2.151906
O       5.65183      1.96306      4.95144         0.508994     -0.023428     -2.341517
O       5.86477     13.53611      4.78155        -0.272866     -0.047213     -1.789229
O       5.91739      1.83851      9.35477        -0.071232     -0.222806     -2.799922
O       5.92474     13.40994      9.25775        -0.570908      0.397970     -0.795382
O       5.67513      5.87691      0.70125         0.323570     -0.458332     -1.661246
O       5.74330      5.95109     13.59760         0.169550     -0.185528     -2.747806
O       5.74237      5.72563      4.95156         0.092098      0.240973     -0.162235
O       5.69021      5.78012      9.28102         0.179816     -0.160681     -1.138488
O       5.85095      9.63148      0.59193        -0.049885      0.146725     -0.816068
O       5.88279      9.53821     13.73565        -0.141860      0.083658     -1.208003
O       5.59151      9.72282      4.88870         0.669190     -0.440412     -0.128902
O       5.82782      9.74655      9.27726        -0.526749     -0.371194     -0.453111
O       9.56175      1.99217      0.70717         0.003469     -0.031599     -2.178145
O       9.51634      1.69566     13.70456         0.816777      0.463030     -1.190403
O       9.56677     13.32229      0.49423         0.351963      0.457964     -0.667847
O       9.59127     13.77613     13.64729         0.652426     -0.386111     -0.590925
O       9.73335      1.91632      4.89567         0.055472     -0.118025     -2.836944
O       9.64529     13.41183      4.87094         0.227948     -0.065932     -2.830898
O       9.76906      1.85086      9.30370        -0.148766      0.587026     -3.142027
O       9.45948     13.50562      9.15731         0.367758     -0.101169     -2.064932
O       9.67179      5.75102      0.48912        -0.157595     -0.202027      0.871509
O       9.59710      5.75878     13.51502         0.143717      0.327668     -1.680160
O       9.78151      5.90567      4.82974        -0.273071     -0.245229      0.548286
O       9.80371      5.88715      9.35502        -0.117976     -0.674618     -0.901684
O       9.50622      9.59796      0.58930        -0.003351      0.057754     -1.128626
O       9.51570      9.67694     13.59287         0.285835     -0.343116     -1.222169
O       9.60281      9.66212      4.93569         0.249530     -0.204116     -3.051050
O       9.66076      9.50653      9.23111         0.415973      0.163100     -1.006323
O       3.87276      1.97533      2.71079         0.001937     -0.025563      0.115936
O       3.90175      1.96642     15.67145         0.774403     -0.682493     -0.466373
O       3.81278     13.48049      2.84613         0.496623      0.157143     -0.567532
O       3.87423     13.49331     15.73230         0.327482     -0.260969      0.145031
O      15.43911      1.78693      2.60401         0.262574      0.173571      0.549772
O      15.42008      1.91682     15.71652         0.352161     -0.386653      0.343019
O      15.30058     13.40240      2.58222         1.008305      0.385175      0.317374
O      15.45901     13.52295     15.82718         0.273051     -0.262504     -0.155328
O       3.79195      1.95466      6.96887         0.139085     -0.567574      0.544318
O       3.88997     13.40239      7.08958        -0.561486      0.689398     -0.451768
O      15.38217      1.98307      6.89474         0.324473     -0.754928      0.303136
O      15.34575     13.48796      7.06528         0.671601      0.018678     -0.172943
O       3.80796      1.85111     11.22510         0.321650      0.196389      0.579122
O       3.88103     13.44160     11.46934        -0.348396      0.375860     -0.044900
O       0.07107      2.01239     11.41841        -0.641547     -0.299442      0.041945
O      15.41998     13.60434     11.32193        -0.081335     -0.329381     -0.119386
O       3.77222      5.78642      2.87413         0.841124      0.178432      0.074491
O       3.91278      5.63780     15.76235        -0.633882      0.549806     -0.482886
O      15.43231      5.69321      2.84941        -0.213958      0.424830     -0.097146
O      15.40848      5.65728     15.75612         0.715474     -0.151038     -0.047755
O       3.80168      5.81246      7.07872         0.900270     -0.026295     -0.041084
O      15.43929      5.81655      7.20024        -0.696981     -0.461921     -0.135308
O       3.94198      5.77317     11.53750        -1.678915      0.269306     -0.693531
O      15.45786      5.83406     11.25606         0.786034      0.089380      0.418615
O       3.86775      9.67777      2.66675        -0.304575     -0.004001      0.342149
O       3.82110      9.49094     15.69804         0.120496      0.539855      0.201770
O      15.35523      9.69056      2.72084        -0.079675      0.310606      0.135923
O      15.42945      9.64022     15.84577        -0.275875      0.161196     -0.571979
O       3.85348      9.69605      7.11581        -0.263440     -0.690862      0.440562
O      15.43302      9.72202      7.06621        -0.977077     -0.757159      0.222819
O       3.83232      9.75309     11.42683        -0.233498     -0.636087     -0.421762
O      15.40756      9.56498     11.24319         0.531699      0.179389      0.212800
O       7.72249      1.84436      2.97092         0.251213      0.773471     -0.915008
O       7.72436      1.91488     15.81599        -0.710595     -0.610709      0.034897
O       7.68695     13.58159      2.66063         0.344246     -0.015282      0.038689
O       7.73966     13.61502     15.80344        -0.800027     -0.703732     -0.369399
O       7.78371      1.96663      7.04111        -0.822101      0.185445      0.022284
O       7.61767     13.45426      6.96467         0.913939      0.408387     -0.409368
O       7.72641      1.99506     11.43172         0.458535      0.148888      0.094599
O       7.71425     13.42223     11.45980         0.636139     -0.011865     -0.354626
O       7.69239      5.80369      2.80432         0.500780     -0.184369     -0.151191
O       7.74429      5.84225     15.66024        -0.330304     -0.194434      0.078387
O       7.75409      5.82187      7.04695        -0.221612     -0.674530      0.062425
O       7.71939      5.79235     11.29090         0.822552      0.011165      0.515837
O       7.65059      9.63746      2.93165         0.479241      0.470563     -0.728259
O       7.72330      9.45188     15.88101         0.149701      0.711322     -0.656435
O       7.68708      9.65038      7.06793         0.430126     -0.667420     -0.274353
O       7.69200      9.68336     11.38673         0.572572     -0.109435      0.122150
O      11.57913      1.89450      2.71264        -0.188673      0.102455      0.302814
O      11.48037      1.77928     15.78848         0.422883      0.416765      0.011967
O      11.49325     13.38179      2.65029         0.191690      0.150070      0.192470
O      11.54605     13.45588     15.70334        -0.089025      0.698352     -0.148993
O      11.53553      1.85966      7.07371         0.405753      0.154543     -0.070580
O      11.49146     13.40969      7.02063        -0.343144     -0.034187     -0.202079
O      11.67166      1.93833     11.55154        -0.877145     -0.347614     -0.418626
O      11.54770     13.55838     11.31724        -0.372990      0.471490     -0.185619
O      11.51374      5.79633      2.62321         0.073368      0.222342      0.541640
O      11.61409      5.76945     15.65744        -0.749987     -0.382882      0.308205
O      11.56586      5.70913      7.11741        -0.390612      0.470130      0.211823
O      11.54851      5.76022     11.61194         0.491595      0.047400     -0.351489
O      11.46513      9.59029      2.59399         0.694377      0.114165      0.630329
O      11.57338      9.60674     15.66194         0.197489     -0.214713     -0.256915
O      11.50202      9.58005      7.10448         0.702511      0.202165     -0.101940
O      11.64028      9.70663     11.52788        -0.859441     -0.492043     -0.463224
O       1.89482      3.89790      2.75672        -0.397461     -1.561009      0.327432
O       2.00032      3.79753     15.72611        -0.366045      0.365938     -0.389322
O       2.07977     15.42618      2.67478        -1.431472     -0.067503      0.049019
O       1.88400     15.45317     15.69609         0.397805     -0.094697      0.556073
O      13.48613      3.77628      2.84648        -0.028951      0.783840     -0.018400
O      13.45560      3.73239     15.79546        -0.447676      0.512475      0.150078
O      13.41768     15.41400      2.71311         0.058434     -0.590762      0.139805
O      13.52926     15.46347     15.78240        -0.339093     -0.722479      0.331625
O       1.83785      3.82807      7.06441         0.157724      0.016009     -0.036415
O       1.95388     15.39146      7.06497        -0.395155      0.482791     -0.304009
O      13.38636      3.81811      7.08027         0.460185      0.061780      0.154085
O      13.38988     15.32512      7.05460         0.389861      1.227826     -0.586491
O       1.97090      3.87306     11.35599        -0.080823     -0.001077     -0.016272
O       1.87073     15.41255     11.38136         0.374565      0.633156     -0.325620
O      13.55130      3.87624     11.42394        -0.284457     -0.412130      0.576231
O      13.54384     15.38893     11.41836        -0.185014      1.279809     -0.046388
O       1.93269      7.75200      2.72971        -0.606952     -0.139351      0.225262
O       1.79509      7.63668     15.83445         0.583229      0.443366     -0.414891
O      13.53300      7.72422      2.79885        -0.588196     -0.074643     -0.618385
O      13.58214      7.62269     15.58444        -0.327176      1.395881      0.356603
O       1.85570      7.73604      7.19028         0.303677     -0.447811     -0.108747
O      13.46103      7.65190      7.22099         0.102120     -0.202404      0.067794
O       1.86147      7.76880     11.22200         0.663268     -1.775558      0.443706
O      13.34313      7.63257     11.42129         0.403847      1.266716      0.033610
O       2.03310     11.54731      2.73901        -1.067574      0.831832      0.185347
O       1.99202     11.52286     15.79396        -0.224959      0.520165     -0.028683
O      13.40825     11.55776      2.65678        -0.081214      0.126291      0.467476
O      13.41450     11.58353     15.71513         0.744253     -0.391191     -0.448461
O       1.90455     11.56014      7.15704        -0.265815      0.604646     -0.196413
O      13.47701     11.50925      6.98964        -0.542441     -0.066708      0.172519
O       1.78357     11.53694     11.39387         0.638460     -0.010263      0.071923
O      13.50812     11.67224     11.26882        -0.071651     -0.381001      0.126841
O       5.75777      3.91476      2.81602         0.595504     -1.071335      0.173705
O       6.00807      3.79860     15.70963        -0.806857     -0.088592     -0.373199
O       5.69968      0.03563      2.69392         0.391311     -0.940075      0.495807
O       5.70365     15.38605     15.70909         0.684879      1.398806      0.037488
O       5.68463      3.73598      7.07313         0.742981      1.945266      0.222765
O       5.76208     15.42730      6.98044        -0.007255      0.220674      0.229090
O       5.74279      3.84685     11.39574        -0.044623     -0.162795      0.262113
O       5.85649     15.38013     11.52727        -0.451958     -0.237758     -0.742457
O       5.75902      7.77091      2.75369         0.181664     -0.689847      0.476901
O       5.74071      7.60869     15.77753         0.125346      0.327529      0.127738
O       5.85081      7.76151      7.15166        -0.585860     -1.339893     -0.294766
O       5.80018      7.78323     11.48541        -0.294899     -0.415305     -0.516256
O       5.85070     11.54952      2.74332        -0.170742      1.209414     -0.142803
O       5.89528     11.47775     15.68612        -0.664484      0.866740      0.176894
O       5.76543     11.53499      6.99375         0.086569      1.020987     -0.002347
O       5.74656     11.62971     11.57789         0.100040     -1.101270     -0.212420
O       9.61657      3.88896      2.86845        -0.101400     -0.633848     -0.218040
O       9.55584      3.89162     15.72234         0.521911     -1.005914      0.012429
O       9.73479     15.39049      2.74645        -0.339336      0.101997     -0.335646
O       9.55480     15.42127     15.98374         0.624968      0.284336     -0.323548
O       9.68501      3.84599      6.81250        -0.201409      1.687889      0.686759
O       9.54810     15.45306      6.92055         0.323540     -0.823915      0.140206
O       9.70554      3.85772     11.50741         0.029093     -0.252469     -0.475463
O       9.38451      0.01742     11.21432         1.451689     -0.491315      0.519419
O       9.47281      7.72560      2.61401         0.496083     -0.742131      0.455213
O       9.70440      7.65044     15.76411        -0.014806      0.241238     -0.493523
O       9.61215      7.69222      7.07681         0.441069     -1.004072      0.045364
O       9.69777      7.77820     11.34241         0.130172     -1.350800      0.627094
O       9.52899     11.50544      2.69499         0.184780      1.066935      0.233920
O       9.58532     11.50319     15.78789        -0.182041      0.602664     -0.589675
O       9.52396     11.48581      7.01115         0.715992      1.015817     -0.167415
O       9.67247     11.59255     11.35597         0.284655     -0.063769     -0.299788
