  # total energy = -7842.08607487 
CRSYTAL
PRIMVEC
    15.6080000000000005    0.0000000000000000    0.0000000000000000
     0.0000000000000000   15.6080000000000005    0.0000000000000000
     0.0000000000000000    0.0000000000000000   16.6239999999999988
PRESSURE
1.9975 3.27597 -1.47332 0.162138 0.40883 -0.180592
PRIMCOORD
320 1
Pb       3.45598      3.68254      4.12934         0.182404      0.548033      0.443388
Pb       3.70559      3.90626      0.13100         0.984430      0.092562      0.096059
Pb       3.56340     15.51398      4.00272         1.207148      0.192229      0.760886
Pb       3.99762     15.60375     16.37481        -0.621396     -0.802422      1.310627
Pb      15.31580      3.92540      4.09187         0.785222     -0.649936      0.865287
Pb       0.12857      3.82227     16.32128        -0.611109      0.870365      0.360741
Pb       0.22998     15.41097      4.11105        -1.575419      2.058151      1.135120
Pb      15.46437     15.47121      0.10271         0.042117     -0.082592     -0.303181
Pb       3.90577      4.05119      8.31827         0.448857      0.444675      0.191091
Pb       3.99712     15.54482      7.95880        -0.390253      0.712244      0.314134
Pb       0.18712      3.81613      8.61772        -1.021028      1.010960     -1.584705
Pb       0.37475      0.17222      8.78646        -0.771363     -0.505341     -1.659064
Pb       4.07394      3.87625     12.65089         0.385229      0.287350     -0.959815
Pb       3.84363     15.39656     12.59491         0.436693      0.861263     -0.125382
Pb      15.48332      4.01469     12.32431        -0.425992     -0.376357      1.456261
Pb      15.56852      0.11150     12.87121        -0.384918      0.070131     -0.199475
Pb       3.89978      7.38043      4.29050        -1.816419      0.822067     -1.188837
Pb       3.87445      7.72535      0.01033        -0.089791     -1.177455      0.175296
Pb      15.43722      7.74160      4.53225         0.000840      0.618177     -1.228420
Pb      15.34855      7.82820      0.14849        -0.145583     -0.877151      0.346335
Pb       3.73440      7.66797      7.98398         0.727768      0.602141      1.804211
Pb      15.52084      7.73311      8.39395         0.613660     -0.109979     -0.776091
Pb       4.12509      7.94453     12.12938        -0.673178     -1.522029      0.470144
Pb      15.41923      7.92948     12.57937         0.120802     -0.803448      0.636915
Pb       4.21284     11.45432      3.82801        -1.923242      1.842322      0.250793
Pb       4.20244     11.40944     16.31862        -1.398691      2.393093      2.081078
Pb      15.38132     11.93515      4.11313         1.001979     -2.676304      0.700295
Pb      15.60184     11.57283      0.22109         0.665870      0.509502     -0.540321
Pb       4.16108     11.58656      8.22107        -0.620824     -0.285300      0.615788
Pb       0.08504     11.66554      8.81940         0.309286     -0.354101     -1.381427
Pb       3.75589     11.49887     12.27547         0.631478      0.037776      0.206205
Pb       0.05162     11.65846     12.58243        -0.442562     -0.004404      0.286835
Pb       7.61736      3.81404      4.41066         0.120142     -0.207851     -1.135934
Pb       7.82558      4.00450      0.25455        -0.893647     -0.051705     -0.064866
Pb       7.36669     15.57007      4.24446         0.374732      1.581868     -0.002012
Pb       7.88150      0.08396      0.24075        -0.456341     -1.033156     -0.197576
Pb       8.11444      3.81630      8.67133        -0.530170      0.366307     -0.694510
Pb       7.76162      0.06887      8.31518         0.288358      0.041045     -0.672425
Pb       7.69728      3.63561     12.69091         0.318371     -0.007678     -0.717465
Pb       7.78681      0.05382     12.30150         0.267072     -0.609514      0.890006
Pb       8.04211      7.76664      4.19288        -0.881561      0.846736     -0.291605
Pb       7.91650      7.61981     16.50328        -0.685935      0.479552      0.432798
Pb       7.76234      7.61349      8.13863        -0.558715      0.725427      0.150697
Pb       7.86910      7.59085     12.24785         0.029355      1.202126      0.332699
Pb       7.94035     11.63394      4.31428        -1.176447     -1.281585     -0.419750
Pb       7.78272     11.59389      0.03946         0.654154     -0.203990      0.207391
Pb       8.06723     11.77904      8.54828        -0.541302     -0.720265     -0.130109
Pb       7.31347     11.52831     12.35422         1.594478      0.176554      0.038913
Pb      11.62383      3.91949      4.28174         0.433344     -0.554063     -0.080268
Pb      11.52810      3.79811      0.17082         0.494917      1.186931     -0.566992
Pb      11.43070      0.21520      3.91270         1.495085      0.355041      0.933737
Pb      11.31808     15.54830     16.43532         1.327681     -0.928806      1.081222
Pb      11.59697      3.53043      8.25456         0.203899      0.352751     -0.441321
Pb      11.65993     15.37355      8.55878        -0.592492      0.640809     -0.308039
Pb      11.71278      4.20343     12.44956        -0.003471     -0.916276      0.899079
Pb      11.85642      0.13659     12.81608         0.032094      0.103847     -0.685682
Pb      11.88351      8.08465      3.91549         0.752971     -0.647100      0.133982
Pb      11.23105      7.92953     16.57354         1.162592     -0.287663      0.918235
Pb      11.36143      7.81436      8.01891         0.751074     -0.701727      0.728225
Pb      11.72076      7.97251     12.36962        -0.390553     -0.694409      0.560286
Pb      11.61817     12.17785      4.29127         0.996565     -2.192704      1.074136
Pb      11.49304     11.89427      0.23083         0.158495      0.145787      0.389213
Pb      12.04262     11.86215      8.53805        -1.301282     -0.151828     -0.446168
Pb      12.00921     12.01659     12.76833        -0.100937     -0.303887     -1.368136
Ti       1.80446      1.76452      2.11748         1.964130      1.140370      0.210237
Ti       2.00153      1.85544     14.58167        -1.009430      0.035223      0.082339
Ti       1.92521     13.36426      2.21859         2.347870     -1.151856     -1.816804
Ti       2.04383     13.53482     14.52810        -2.064449     -0.068770      1.800118
Ti      13.67202      1.95446      2.10714        -0.142141     -1.315203     -0.337659
Ti      13.58206      2.02095     14.75827         0.381315      0.061921     -1.432976
Ti      13.58883     13.68434      2.42873        -0.226573      1.213765     -3.119318
Ti      13.76398     13.44811     14.83961         0.667170      0.771219      0.500236
Ti       1.95293      2.00761      6.60540        -0.137104     -1.941951     -3.250312
Ti       1.95134     13.29042      6.27597        -1.443536      3.464384      0.768697
Ti      13.75448      1.90846      6.28687        -0.652047     -0.338718     -1.687740
Ti      13.68101     13.70724      6.47456         0.237976     -0.156691     -1.208878
Ti       2.07162      1.97411     10.55051         1.011507     -1.071578      1.157366
Ti       2.19116     13.74694     10.28321        -0.485860     -1.183764      0.237934
Ti      13.65045      1.93053     10.43831        -0.707964      1.047550      0.716931
Ti      13.89374     13.77234     10.39107        -0.425547     -0.194964      3.268927
Ti       1.70391      5.74589      1.96444         1.084458      1.624181      0.724339
Ti       2.07632      5.83059     14.42759        -1.960653      0.368151      2.935054
Ti      13.61915      5.75496      2.15923        -0.960987      4.173931     -1.711396
Ti      13.41936      5.83076     14.80082         1.325543      0.252593     -0.819878
Ti       1.80012      5.85264      6.43564        -0.029645     -0.737116     -0.870406
Ti      13.54052      5.74158      6.24288         0.650326      0.235429      4.331593
Ti       2.00009      5.57787     10.58482         3.606970      2.354732     -1.039389
Ti      13.61915      5.76557     10.34342        -0.040777      0.187201     -1.938173
Ti       1.95594      9.48182      1.98696        -1.159105      1.706677      7.466974
Ti       2.03053      9.65517     14.75805        -1.913374      0.393772     -1.816987
Ti      13.61164      9.88447      1.94330         0.578807     -3.205912      1.042546
Ti      13.71270      9.57123     14.67811        -0.053551      1.498086      1.005688
Ti       1.74150      9.83769      6.15454        -0.535878     -4.454497     -0.510650
Ti      13.59148      9.63519      6.47817         0.523441      1.222627     -2.529820
Ti       1.82981      9.71075     10.58425         1.009618     -1.647087     -2.656693
Ti      13.57178      9.54483     10.33960         0.491655      0.581011      0.343786
Ti       5.65420      1.99232      2.11320         1.434148      0.456199     -0.454533
Ti       6.00554      1.84649     14.75535        -0.046754      0.729874     -0.414441
Ti       5.86380     13.61376      2.00029        -2.115881      0.311023      1.812133
Ti       5.90083     13.55309     14.58645         0.569791      0.701447     -0.794393
Ti       5.86179      2.19384      6.38675        -0.957213     -1.330357     -1.343773
Ti       5.77947     13.62158      6.22921         0.733217     -0.161414      0.078844
Ti       5.85076      1.87446     10.24430        -0.266482      1.023457      2.216307
Ti       5.79684     13.80201     10.27269         0.717440     -1.251641     -1.017406
Ti       5.77713      5.92457      2.18194        -1.413872     -1.756756     -1.663312
Ti       5.82753      5.79767     14.40133         0.655859     -0.301999     -0.410650
Ti       5.82855      5.86524      6.15435         0.346457      0.383114      1.937319
Ti       6.11283      5.79972     10.41651        -1.863860     -0.030032     -0.713950
Ti       5.86916      9.60834      1.88741         1.538688      0.098422      3.124881
Ti       5.95999      9.49781     14.64523         1.424837      0.593620     -1.928723
Ti       5.67208      9.73885      6.21948         2.496321     -0.466271      1.006560
Ti       5.82485      9.71254     10.24195         1.292289     -0.375373     -0.789083
Ti       9.58874      2.05028      2.14320        -0.520481      0.261018      1.817841
Ti       9.74961      2.00314     14.65902         0.375164      0.801924     -2.512157
Ti       9.55660     13.78144      2.55375        -0.727927     -0.390216     -5.056119
Ti       9.67580     13.47892     14.58777        -0.679092      2.445463     -2.614432
Ti       9.66489      1.76543      6.21284         0.957294      1.681355      1.210949
Ti       9.70201     13.62073      6.43078         1.334154      1.020261      0.880020
Ti       9.79683      1.86956     10.64708         0.438535     -0.877793      0.321232
Ti       9.66948     13.61494     10.67863         1.481237      0.110109      0.085925
Ti       9.64890      5.86601      2.28191         1.613095      0.806116     -1.155504
Ti       9.62015      5.99784     14.43127         1.964046     -2.515570     -0.982273
Ti       9.69009      5.82754      6.09346         0.812659      0.076953     -0.152135
Ti       9.94461      5.79880     10.39119        -1.535592      1.456191      0.693677
Ti       9.80568      9.79127      2.34082        -1.612119     -0.285016     -2.092055
Ti       9.85973      9.88470     14.48086        -0.913074     -1.554772     -0.522882
Ti       9.79661      9.78029      6.24644        -1.696815      0.389043      0.262649
Ti       9.83658      9.75439     10.47971        -1.223158     -0.168781     -0.381855
O       1.82326      2.00283      0.33288         1.258573     -0.770999     -0.944105
O       1.96355      1.61501     12.68971         0.293725      0.546265      1.160557
O       2.31469     13.47956      0.47475        -1.310233     -0.421837      0.863113
O       1.82766     13.73854     12.75923         0.295111     -0.425693     -0.963238
O      13.94701      2.02315      0.18850        -1.286188      0.363287      2.072037
O      13.81619      1.89789     12.80525         0.213320      0.095413      0.778672
O      13.44232     13.67269      0.52551         0.052943     -0.237147     -1.357291
O      13.76561     13.87729     12.97103        -0.144688     -1.188104      0.553530
O       1.98710      1.76605      4.43848        -0.770856      0.871535      0.502515
O       1.71832     13.80997      4.49048         1.384711     -1.448267      0.405717
O      13.72002      2.03362      4.39059        -0.096836     -0.134396     -0.387156
O      13.84182     13.58750      4.46026        -1.128757      0.037929      0.174245
O       1.91141      2.00616      8.72249         0.283338      0.226654     -0.753725
O       2.28085     13.48152      8.47238        -0.438286      0.515312      0.379377
O      13.37183      1.96599      8.59261         0.755493      0.136456      0.570375
O      13.66988     13.62579      8.68177        -0.276281      0.721894     -2.566513
O       1.71357      5.86846      0.14178         0.948241     -0.086670      0.546362
O       1.90850      5.62164     12.74757         0.548347      0.251419     -1.831995
O      13.92214      5.90521      0.35242        -1.186861     -0.514324     -0.747162
O      13.54453      6.14168     12.94845         0.015846     -0.921635     -0.935963
O       1.67856      5.89007      4.62059         0.959411     -0.365409      0.267272
O      13.39659      6.00489      4.58184         0.503892      0.164173     -4.464051
O       2.05549      5.45240      8.65523        -0.453837      0.940858      1.901986
O      13.71009      5.63687      8.56664        -0.112734      0.205605      1.025397
O       2.04069      9.75545      0.39610         0.688558      0.128114     -7.763719
O       2.01097      9.74415     12.73789        -0.335982      0.814489      0.596177
O      13.44210      9.62258      0.16061         0.751981      0.665890      0.565881
O      13.68685      9.85786     12.89300         0.889960     -0.301026     -2.767839
O       1.83310      9.58508      4.36044        -0.092220     -0.204923      2.369466
O      13.83462      9.56211      4.46223        -0.681773      0.653060      0.911848
O       1.71722      9.95616      8.71579         0.770062     -0.006841      0.377315
O      13.30062      9.90524      8.62303         1.321153     -0.847226     -1.315641
O       5.61968      2.19583      0.24419         0.506524     -0.720636     -0.001557
O       6.29239      1.69803     12.91828        -0.922073      1.442308      0.569922
O       5.67937     13.45617      0.31310        -0.319301      0.721210     -3.627136
O       5.88521     13.58631     12.75673        -0.093646      0.236890      1.843517
O       6.06679      1.99584      4.41265         0.103408      0.402284      0.896937
O       6.03302     13.82955      4.35719        -0.768230     -1.366944      1.572550
O       5.80813      1.98304      8.50481         0.501675      0.064713     -0.906248
O       5.51989     13.75930      8.37200         1.190399     -0.034762      1.266173
O       5.78700      5.98508      0.27514         0.088328      0.273249      0.299989
O       5.86445      5.94368     12.55818         0.354741     -0.807905      0.789372
O       5.40385      5.70447      4.44948         1.304124      0.011820     -1.697293
O       6.03604      5.86830      8.54778        -0.024822     -0.246146      0.785209
O       5.97471      9.53910      0.11837        -0.013387     -0.106932     -0.748852
O       5.89942      9.58528     12.78768        -0.693051      0.880684     -0.321905
O       5.82362     10.02846      4.47460         0.553073     -1.177870     -0.298422
O       6.00971      9.76597      8.45347        -0.788009      0.061408      0.735989
O       9.71654      2.25882      0.36977         0.686469     -0.690466     -2.218586
O       9.48204      1.76650     12.67207         0.644432      0.894202      0.931545
O       9.81827     13.90461      0.65988         1.026160     -0.940156     -1.226321
O       9.49031     13.64367     12.64889         0.829263     -0.878784      2.108202
O       9.42233      2.23200      4.45850         0.881113     -0.655055     -0.254487
O       9.80332     13.63139      4.33474        -1.190365      0.289105      2.863691
O       9.93447      1.67492      8.52450        -0.394878      0.998595      1.345102
O      10.06192     13.75084      8.67060        -1.977894     -0.309393     -1.043940
O       9.49876      6.04917      0.15176         0.678151     -1.261778      0.693851
O       9.94019      5.95432     12.54882        -0.649438     -0.128119      1.257292
O       9.81867      5.84518      4.18974        -0.578285     -0.049993      1.393337
O       9.53369      6.12954      8.64377         0.998445     -0.856620     -0.943543
O       9.56583      9.82543      0.31007         1.205213     -0.797021      0.595427
O       9.82113      9.84734     12.69701         0.544693      0.147506     -0.085320
O       9.86833      9.85630      4.43471        -0.627352      0.118511     -0.050805
O       9.78252      9.52049      8.60549         0.092280      1.164713     -0.033785
O       3.89947      2.06110      2.59051        -1.211827     -0.349225     -0.969654
O       4.19500      1.65175     14.65372        -3.560696      0.770715     -0.182385
O       3.86788     13.61328      2.60963         0.041033     -0.501741     -0.072254
O       3.80347     13.89914     14.60446         3.218299     -0.919615      0.346249
O       0.10373      1.90102      2.32812        -4.051399      0.642207      0.555215
O       0.11616      2.01721     14.77104         0.273840     -0.619254     -0.538923
O      15.55864     13.55157      2.41207         0.123155      0.059920     -0.393611
O      15.60540     13.42246     15.11267        -1.062893      1.193494     -0.218657
O       3.93816      2.05373      6.19295         0.154374     -0.129640      1.687883
O       3.91643     13.91615      6.40876        -0.167720     -1.325379     -1.375210
O      15.51002      1.97312      6.52798         0.981272      0.224068      0.821289
O       0.12266     13.35087      6.59704        -0.228869      0.517762      0.122808
O       4.01058      1.80098     10.56713        -0.187096      0.542816      0.579403
O       4.03378     13.99352     10.74185        -1.821360     -1.257111      0.234157
O       0.01777      2.25253     10.58895        -0.055856     -0.846760     -0.076021
O       0.19553     13.81818     10.40809        -0.554723     -0.432009      0.058807
O       3.78519      5.76880      2.29561        -0.080411      0.024228     -0.148614
O       4.01675      5.49740     14.68154        -2.117927      1.170689      0.157368
O      15.46274      6.13682      2.40962         1.082768     -1.329972      0.511106
O      15.60632      5.60040     14.66270         1.368856      0.220540     -0.165894
O       3.75268      5.76238      6.64504         0.983130      0.732876     -0.201095
O       0.05378      5.81436      6.73467        -1.721242      0.376525      0.234496
O       3.99574      5.64569     10.76527        -0.531703      0.855723     -0.261310
O       0.21385      5.74185     10.63814        -2.835304     -0.133883      0.245941
O       4.14481     10.23193      2.00569        -0.825544     -1.793034     -0.322995
O       3.86748      9.66220     15.03669         1.636014     -0.589766     -1.148902
O       0.08693      9.80909      2.00078        -2.204394     -0.806951     -0.041862
O       0.06028      9.67538     14.77476         2.046427     -0.158917      0.541205
O       3.87437      9.68117      6.60628        -0.416554      0.123770     -0.468876
O      15.43620      9.72398      6.66020         2.256787      0.267937     -0.048492
O       3.81353      9.61728     10.59582         2.162212      1.468631     -0.010936
O      15.51219      9.76417     10.43651        -0.729223      0.107653      1.655552
O       7.77269      2.12617      2.19007        -0.713381     -0.841268     -0.250347
O       8.04025      1.70817     15.01094        -2.649328      0.707729      0.527514
O       7.66517     13.94912      2.08601         2.509452     -0.076301      1.450723
O       7.92223     13.52374     15.20157        -1.443329      0.286784     -0.738972
O       7.83912      1.93466      6.72962        -0.175369      0.734796     -0.159583
O       7.85727     13.66961      6.61788        -0.318352      0.284271     -0.081752
O       7.81187      1.88561     10.77135         0.085984      0.692340     -1.624665
O       7.56095     13.45401     10.58056         2.474641      1.473378     -0.644574
O       7.67926      6.22132      2.17520         0.901930     -0.442030      0.942744
O       7.79641      5.95312     14.51741        -0.566870     -0.210003      0.603618
O       7.69189      5.85286      6.20045        -0.045539      0.866531     -0.483981
O       7.98331      5.98559     10.64647        -1.126901     -0.299991      0.071133
O       7.84574      9.54145      2.55997        -1.124902      0.462286     -0.338889
O       7.97368      9.75916     14.73939        -1.112394     -0.637829      0.082409
O       7.87867      9.81563      6.36499         0.813097      0.135258     -0.213630
O       7.78016      9.79111     10.64124         0.198144     -0.237463     -0.169280
O      11.72621      2.08867      2.32572         0.050211     -0.430529     -0.062911
O      11.72027      2.19187     14.37648        -0.096893     -1.468356      1.574886
O      11.66040     13.73158      2.68111         0.263930      0.336219     -0.536676
O      11.62638     13.54514     14.80109         0.826150     -0.110854      0.428204
O      11.67723      2.08667      6.32751        -0.882526      0.765455      0.161914
O      11.69011     13.79886      6.44693         0.891330     -0.558146      0.187017
O      11.67307      2.15706     11.01342         0.078405     -1.209129     -0.975411
O      11.64037     13.76367     10.74003         1.107593     -0.506000      0.473463
O      11.61411      6.10883      2.20453         0.247975     -2.118962     -0.313010
O      11.54089      5.78883     14.85769         1.436370      0.030630      0.733945
O      11.71245      5.59915      6.60901        -1.961717      0.563296     -0.383070
O      11.73384      5.77523     10.72293         1.169621      0.582018     -0.763136
O      11.63617      9.96671      2.40381         1.663711     -0.181358     -0.325959
O      11.91369      9.55627     14.71576        -3.722114      0.727782      0.116040
O      11.68622      9.57066      6.33569        -0.637389     -0.193014      0.783612
O      11.84018      9.89769     10.63317        -2.126658      0.516656      1.132758
O       1.76956      3.95496      2.31027         0.183798     -0.527276      0.190020
O       2.11146      3.68392     14.96023         0.533589      0.034574     -1.292803
O       1.84656     15.53151      2.38714         0.427572     -0.648546     -0.390056
O       1.67824     15.28451     15.06768         0.496434      3.044924     -0.497422
O      13.37812      4.00171      2.51882         1.230269     -1.676221     -0.167894
O      13.51548      3.96027     15.02255         0.286502     -0.393942     -0.115608
O      13.69522     15.60340      2.19340        -0.354398      1.371703      1.024980
O      13.57708      0.15834     15.06595         0.133681     -0.952565     -0.489942
O       1.85148      3.79435      6.83575         0.176585      1.235989     -0.995891
O       1.68469      0.17736      6.68036         0.917658     -1.158022      0.817742
O      13.88596      3.98460      6.17874        -0.573182     -1.910611      0.417038
O      13.60212     15.54531      6.27168         0.651587      0.071203      1.066115
O       2.28786      3.77048     10.97154        -1.255797     -0.252105     -0.356073
O       2.01789     15.60615     10.52986        -0.314520      0.665983     -0.194761
O      13.53853      3.98619     10.71190         0.980685     -1.365094      0.687045
O      13.77131      0.15552     10.80584        -0.100358     -1.106720     -0.644475
O       2.12203      7.70740      2.38956        -0.019332     -0.474302     -0.661986
O       2.27511      7.74440     14.68542        -0.885511     -0.510726      0.180741
O      13.65036      7.85165      2.23813        -0.692690      1.149100      0.542275
O      13.89916      7.78780     14.80322        -0.061548     -1.592176      0.632936
O       1.80851      7.82838      6.83539        -0.053714     -0.145561     -0.730287
O      13.77990      7.73316      6.53844        -0.415157      0.305172      1.027649
O       1.96172      7.86563     10.59444        -0.458137     -0.704339      0.381186
O      13.45905      7.68299     10.35488         0.849397      1.602281      0.944896
O       1.86084     11.39921      2.60033         0.500220      3.226869     -0.434336
O       1.92605     11.71272     14.96616         0.803490     -1.733894     -0.639676
O      13.60227     11.69162      2.11114         0.271488      1.054736      1.194659
O      13.89282     11.60617     14.91720        -1.433339      1.062358     -0.304637
O       2.09692     11.52503      6.34192         0.793450      2.310171      0.183807
O      13.60514     11.67948      6.62201        -0.848994      0.614595      0.101425
O       2.27122     11.79639     10.63836        -1.206271      0.397909      0.355022
O      13.91831     11.93020     10.75221        -0.554940     -0.085117      0.283648
O       5.85437      3.95270      2.20462         0.507029      0.900008      0.576848
O       5.83209      3.90825     14.71338         1.720100     -1.343499     -0.400943
O       5.68878      0.07242      2.05137         0.492416      0.444501      0.598218
O       5.85552     15.55305     14.97485         1.592854     -2.021930      0.311826
O       5.73103      4.09223      6.55663         0.793218     -3.208953      0.104064
O       5.99415      0.19237      6.51578        -0.219425     -1.535934      0.004211
O       6.02691      3.96733     10.67680         0.160689     -1.995810      0.058575
O       5.98434      0.01746     10.63590         0.254096      0.424158     -0.632053
O       5.49412      7.84258      2.53187         0.490294      0.741556     -0.567018
O       5.81689      7.69578     14.44570        -0.366855      0.542577      1.863531
O       5.88634      7.76803      6.42436        -0.896255      1.037637     -0.339251
O       5.91550      7.81112     10.57345        -0.130860      0.432066      0.029003
O       6.11181     11.77162      2.14158         0.259710     -1.471559      1.160192
O       6.02867     11.52093     14.68539        -0.923426      1.761825      0.640248
O       6.01276     11.69099      6.60337        -1.312351      1.529259     -0.597384
O       5.91956     11.77024     10.48890        -2.242463     -1.583341     -0.098778
O       9.55377      3.95155      2.41978         0.609447      1.557518     -0.733390
O       9.72466      3.85180     14.62295        -0.633585      0.089747      0.456451
O       9.69831      0.16806      2.31704         0.215883     -0.452652      1.030089
O       9.80256     15.46555     14.73369         0.570563      0.394469      0.556996
O       9.34274      4.21593      6.66189         1.122096     -3.079080      0.271168
O       9.79811      0.02430      6.32787        -0.445583     -1.118287     -0.201208
O       9.76054      3.97908     10.59613        -0.355215     -1.712637     -0.457477
O       9.71743     15.56173     10.73895        -0.104046      1.419563     -0.518507
O      10.00099      7.85832      2.33376        -1.681607      0.452488      0.404047
O       9.91682      7.73304     14.60341        -0.669167      2.599497      0.426389
O       9.52651      7.67974      6.26191         1.179488      1.882070      0.907962
O       9.96976      7.86374     10.69358        -0.062613      1.047448      0.285799
O       9.60422     11.67742      2.36670        -0.263241      2.224459      0.533498
O       9.85110     11.66110     14.99955         0.311499      0.264931     -0.220662
O       9.94987     11.84044      6.60160        -0.607811     -1.770324     -0.468706
O       9.56584     11.78669     10.69210         0.753414     -1.520592     -0.847973
