  # total energy = -7844.58511175 
CRSYTAL
PRIMVEC
    15.6080000000000005    0.0000000000000000    0.0000000000000000
     0.0000000000000000   15.6080000000000005    0.0000000000000000
     0.0000000000000000    0.0000000000000000   16.6239999999999988
PRESSURE
1.83629 1.08972 -3.39339 -0.261376 0.136402 -0.084676
PRIMCOORD
320 1
Pb       4.06974      4.12288      4.25071        -0.982976     -0.973745      0.566515
Pb       3.95755      4.06158      0.13850        -0.323890     -0.380460     -0.411523
Pb       4.07014      0.13748      4.42537         0.786654      0.543299     -0.124136
Pb       3.74831     15.45986      0.14088        -0.554558      1.261040     -0.642458
Pb       0.22123      4.02135      4.29692         0.017248      0.485238     -0.854988
Pb       0.03856      3.82058      0.17713         0.515326      0.212366      0.593506
Pb      15.39628     15.54445      4.49003         0.679018     -0.139640     -0.904962
Pb       0.30145     15.47836      0.00752         0.400144      0.030197      0.102978
Pb       3.88124      3.65508      8.27270         0.988551      1.257518      0.019495
Pb       3.80548      0.01041      8.47315         1.150355      0.260430     -0.044562
Pb      15.38869      4.02829      8.14323         0.140008      0.502281      0.373353
Pb      15.21229      0.03323      7.97966        -0.017947      0.714483      0.902495
Pb       4.02319      3.91446     12.38049        -0.984845     -0.608816      0.102814
Pb       3.78758      0.09851     12.44183         0.093650      0.845858     -0.183935
Pb       0.06859      3.67257     12.70502         0.783208      0.871950     -1.218134
Pb      15.54458     15.55792     12.23726        -0.778425      0.198169     -0.466244
Pb       3.72107      7.97632      4.25389        -0.195670      0.144410      0.304341
Pb       3.62329      8.07202      0.13508         1.454511     -0.576874      0.106041
Pb      15.59845      7.85350      4.12790        -0.601890     -0.643692     -0.503079
Pb       0.16746      7.97489      0.10830        -1.401786     -0.341452      0.476342
Pb       3.88040      7.90796      8.73500        -0.561943     -1.545116     -0.871310
Pb       0.03907      7.58649      8.52186         0.082355     -1.088202      0.846378
Pb       3.79783      7.64501     12.79996         0.257075     -0.625060      0.292019
Pb       0.20989      7.41126     12.80533        -0.061401      0.176990     -0.278336
Pb       3.76172     11.92554      4.51044        -0.151028     -1.316542     -0.148748
Pb       3.58874     11.85099      0.08027         0.752236     -0.563970      0.499175
Pb      15.53647     11.62328      4.69338         0.554212      0.631022     -2.275225
Pb       0.00588     11.86978     16.55775        -0.096785     -0.550829      0.426951
Pb       3.76190     11.67309      8.64753         1.024087     -0.141319      0.064155
Pb      15.43941     11.23734      8.16353         0.468233      1.644008      2.542074
Pb       3.71029     11.85409     12.59885         1.722243     -0.062294     -0.655300
Pb      15.38295     11.79430     12.40880        -0.824791      0.018111     -0.494698
Pb       7.73195      4.14904      4.10037         0.467053     -0.362310      0.313218
Pb       7.82633      3.67229     16.56869         0.097317      1.735639      0.410669
Pb       7.90265      0.06314      4.05304        -0.754401     -0.548502     -0.156302
Pb       7.66925      0.13042      0.01892         0.277466     -1.344000      0.341985
Pb       7.77635      3.96810      8.53977         0.055688      0.411685     -0.641655
Pb       7.75314      0.12898      8.31400        -0.537350      0.234888     -0.352359
Pb       7.97837      3.85130     12.59989         0.146155     -0.295551      0.463873
Pb       7.72229     15.45214     12.79705        -0.206126     -0.480249     -0.315011
Pb       7.69282      7.71504      4.00161         0.859502      0.365981     -0.762955
Pb       7.74207      7.92569     16.51151        -0.066495      0.203815      0.420175
Pb       7.88820      7.79971      8.34388        -0.276958     -0.380671     -0.874519
Pb       7.58516      7.70175     12.79144        -0.294157      0.998127     -0.215854
Pb       7.59100     11.92370      4.21963         0.567744      0.867574     -0.257849
Pb       7.66095     11.45378     16.61274         0.080345      0.411746     -0.039627
Pb       7.58338     11.81051      8.46762        -0.602312     -0.547643     -0.164443
Pb       8.15927     11.90939     12.84357        -2.672770     -0.465527     -0.825112
Pb      11.97257      3.89708      4.03104        -1.410556     -0.041156     -0.937070
Pb      12.02528      3.79491      0.01212        -0.726099      0.244158      0.992150
Pb      11.93818     15.33609      4.19481        -1.565163      0.423120      0.231194
Pb      12.25925     15.52117      0.36853        -1.093645      0.270088     -0.362282
Pb      11.62598      4.10244      8.45900        -0.636025     -1.327669     -0.195007
Pb      11.49464      0.23088      8.10512        -0.139074      0.836569      0.402810
Pb      11.80064      3.74515     12.73772        -1.147601     -0.487695     -0.679313
Pb      11.68585     15.41465     12.09668        -0.318389      0.411621      0.695052
Pb      11.51056      7.57160      4.21541         0.356731      1.042200     -1.079091
Pb      12.05712      7.72844     16.61033        -0.253787      0.291986      0.701860
Pb      11.76273      7.67291      8.57442         0.152502     -0.196950     -0.272473
Pb      11.61179      7.66623     12.54734         0.514657      0.858986      0.173625
Pb      11.58825     11.60308      4.30348        -0.548695      0.759661     -1.143624
Pb      11.79432     11.61008      0.06397        -0.238360     -0.784888     -0.126992
Pb      11.54758     11.21668      8.19664        -0.551709      0.197092      0.271848
Pb      11.39055     11.47918     12.15879         1.206505      1.113912      0.989605
Ti       2.06941      1.96741      2.47927        -1.099257      0.147092     -2.673806
Ti       1.86668      1.93032     14.68997         1.930480      0.117729     -0.127087
Ti       1.94625     13.67942      2.49104        -2.131419      1.101673     -0.720173
Ti       1.84428     13.65411     14.19438         0.513219      1.443140      2.876428
Ti      13.95425      1.96559      2.13872         0.665797      0.831072     -0.323294
Ti      13.55513      1.86274     14.39988         0.728582     -0.659287     -0.753002
Ti      13.81358     13.60358      2.03162        -1.798176     -1.473571      0.469815
Ti      13.50025     13.54584     14.47099        -0.687203      0.548155     -1.884700
Ti       1.95057      2.04740      6.15795         1.536557      0.330115      0.333692
Ti       1.94512     13.75814      6.56075        -0.651067     -0.152412     -0.808022
Ti      13.45671      2.08213      6.00299         0.563329     -1.139793      1.186316
Ti      13.44726     13.41001      6.34102        -0.199713      2.135353     -0.734843
Ti       1.95118      2.01219     10.04313         0.158467     -0.229061      2.781825
Ti       1.92096     13.59455     10.29826        -1.691010      1.729641      0.595701
Ti      13.74063      1.95713     10.27927        -2.440716      0.048706     -0.391867
Ti      13.39907     13.61334     10.03932         1.168505     -0.589295      1.919910
Ti       2.02813      5.90685      2.30539        -2.910954      0.015722      0.061866
Ti       1.91982      5.76216     14.95354         1.274176      0.003627     -0.589651
Ti      13.67650      5.86659      2.29640         1.948276      1.215345     -1.766560
Ti      13.62715      5.79403     14.53778         1.289872      0.400592      1.970464
Ti       2.01781      5.87927      6.38984        -0.201582      0.471351      0.715727
Ti      13.60256      5.66898      6.12206         0.590102      2.175671      1.252728
Ti       2.12627      5.86554     10.51087        -0.643466     -0.694472     -0.109799
Ti      13.63902      5.71566     10.66018         3.265321      0.465170     -0.023479
Ti       1.82358      9.92436      2.13897         0.638688      0.282623     -2.433706
Ti       1.92692      9.85413     14.64515        -1.434994     -2.237303      1.059948
Ti      13.60945      9.81732      2.18362        -0.342669     -0.632002     -0.470113
Ti      13.69998      9.71976     14.49172        -0.744493     -0.348991      0.891071
Ti       1.89067      9.74470      6.55769         2.776475     -0.637684     -2.370513
Ti      13.66301      9.63954      6.30159        -1.792476     -3.046997     -0.637976
Ti       1.88715      9.84666     10.84739        -1.988224     -1.799550     -1.384200
Ti      13.59163      9.73409     10.57219         1.822654     -0.944072      0.887956
Ti       5.84697      2.05723      1.97185        -0.066714     -2.822086      0.960823
Ti       5.77363      1.71473     14.60157        -1.723495      1.905991     -0.646285
Ti       5.56342     13.76407      2.17998         4.595840      0.151923     -0.099018
Ti       5.69990     13.44835     14.78169         3.156969      1.341667     -0.988550
Ti       5.96181      2.09162      6.30330        -1.300396     -0.499236      0.021475
Ti       5.71736     13.66287      6.42556         1.896929      1.990603      0.043141
Ti       5.88223      1.84025     10.48125        -0.795846      0.867198     -0.472586
Ti       5.87590     13.70501     10.46869        -0.708591     -0.888300      1.030692
Ti       5.65398      6.03313      2.04998         0.707320     -1.570708     -1.884353
Ti       5.79981      5.60902     14.49157        -0.482017      0.757364      1.545391
Ti       5.75207      6.00846      6.12861         0.841482     -2.540471      0.393775
Ti       6.10367      5.78438     10.60918        -2.507752     -0.650109     -1.625823
Ti       5.69340      9.90786      2.24608        -0.766670     -1.542410     -2.475424
Ti       5.65783      9.66572     14.50667         3.180831      0.042236     -0.369994
Ti       5.81019      9.74921      6.11166        -0.989100      0.424687      0.055032
Ti       5.60274      9.55884     10.49658         2.789408      1.408987      1.589583
Ti       9.82560      2.04032      2.33672         0.644958      0.536728     -0.410456
Ti       9.73040      1.96217     14.83427         2.078945      0.233760     -1.449453
Ti       9.72675     13.68873      2.05508        -0.261958     -0.296242      2.590373
Ti       9.73524     13.70599     14.85833        -0.559504     -0.539857     -0.702716
Ti       9.65963      2.11527      6.17841         0.670960      0.990640      1.368004
Ti       9.65614     13.64487      6.32119        -0.418090      0.327874     -3.017844
Ti       9.65398      1.79561     10.52892         1.716972      0.975882      0.805379
Ti       9.66396     13.47059     10.08246        -0.790143      0.810310      1.505108
Ti       9.55048      5.78487      1.96132        -0.288217     -0.193391     -1.839953
Ti       9.82550      6.03142     14.47099        -1.502474     -2.275763      1.252469
Ti       9.80139      5.93963      6.15473        -1.719571     -2.171272     -0.362031
Ti       9.87606      5.77863     10.54989        -0.928802     -1.672994      0.066844
Ti       9.72129      9.83405      2.04731         0.222410     -1.572587     -0.954132
Ti       9.78613      9.81898     14.46565         0.016444     -2.131436      1.579616
Ti       9.70239      9.64082      5.97382        -1.277744      0.373902     -0.129319
Ti       9.50453      9.50845     10.49461        -0.702539      1.380934     -0.213135
O       1.81997      1.45765      0.21596         0.416187      1.038897     -1.366631
O       2.28893      2.14936     12.84420        -1.308155     -0.511382     -0.123905
O       2.14917     13.62939      0.03369        -1.305274      0.553598     -0.024532
O       1.93718     13.66099     12.40807         0.382840      0.427139     -0.730308
O      13.81560      2.19585      0.28148        -0.281222     -1.671462     -1.030552
O      13.72468      1.89743     12.56928         0.234703      0.400169     -0.578484
O      13.47291     13.48188      0.16302         1.078308      0.617789     -0.925940
O      13.41117     13.61722     12.43476         1.025276      0.042903      1.771262
O       1.99876      2.09955      4.31040         0.148061     -0.454677      0.357409
O       1.83892     13.52647      4.24371         0.143395      0.536825      1.032156
O      13.71554      1.82852      4.06285        -0.357383      0.395912      1.223130
O      13.51916     13.63464      4.44972         0.913929     -0.103878      1.028065
O       2.01508      1.93373      8.28371        -0.038212      0.243927     -0.534302
O       1.94811     13.60760      8.42779         0.266869     -0.248595     -2.166516
O      13.59774      2.09033      8.26414         0.391208     -0.163216      1.194545
O      13.42968     13.87481      8.24897         1.039311     -0.258693      0.814665
O       1.90627      6.32399      0.07275        -0.413121     -2.861457     -1.104466
O       2.03351      5.58304     12.59003         0.190528      1.166873     -1.517291
O      13.68309      6.03388      0.12608         0.123652     -1.098938     -0.914619
O      13.74207      5.86127     12.70049         0.024651     -0.507781     -2.653113
O       2.35600      6.07298      4.34231        -0.964552     -0.733049     -1.377690
O      14.04063      5.80122      4.23504        -1.559576      0.022070      0.314850
O       1.98847      5.91041      8.35669        -0.122850      0.021094     -0.034572
O      13.50997      5.55587      8.23822         1.168361      0.319035     -0.255341
O       1.90081      9.92798     16.60358        -0.213209      0.361046     -1.382445
O       1.74744      9.56374     12.57471         0.600732      0.642206      0.578764
O      13.37014      9.64585      0.00876         0.458539      0.397247      0.060971
O      13.78190      9.86141     12.58640        -0.560329     -0.358973     -1.937907
O       1.77441      9.75227      3.82197         0.388061      0.004520      3.222940
O      13.77766      9.57594      4.08393         0.214470      0.751454      1.542643
O       1.91080      9.91970      8.28162        -0.145729     -0.012600      1.961233
O      13.72846      9.68657      8.26889        -0.604026     -0.203303     -0.897267
O       5.80895      1.58959      0.21039        -0.143471      1.076739     -0.005009
O       6.01389      1.76453     12.72770        -0.477277      0.458918     -0.079925
O       5.67356     13.61911      0.13133        -0.240875      0.574152      1.346735
O       5.99846     13.68792     12.79712         0.081584     -0.171518     -1.046231
O       5.91371      1.85985      4.53538         0.123220      0.099483     -1.454126
O       6.04142     13.73037      4.21646        -1.178544     -1.245803      0.833341
O       5.64265      1.57328      8.50204         1.411950      1.075675     -0.523760
O       5.92515     13.83263      8.28754         0.153396     -1.077602      0.840166
O       5.74534      5.87134     16.60740         0.521034     -0.087291      1.276924
O       5.73895      5.56056     12.46839        -0.258644      0.624760      1.728046
O       5.59585      5.79959      4.18344         0.678063      0.509985      0.508797
O       6.12943      5.81990      8.70695         0.624822      0.958429     -0.542681
O       5.90641      9.47139      0.25331         0.854383      0.633307     -0.101240
O       5.94216      9.64296     12.72210        -1.644095      0.752000     -0.274280
O       5.43430      9.90444      4.25268         1.799496     -0.533442     -0.190981
O       5.61139      9.57770      8.67452         0.737570      0.262487     -0.472931
O       9.98309      2.20918     16.54325        -0.130287     -0.450109      1.041899
O       9.60024      1.95641     12.38132        -0.278498     -0.652575      0.064664
O       9.74923     13.38864      0.36438         0.984963      0.369845     -3.302256
O       9.60856     13.52262     12.69965         1.037785      0.880738      0.888970
O       9.60765      2.26314      4.27439         0.569150     -1.148001     -1.295890
O       9.92128     13.54637      4.35055        -0.084821      0.471222      0.594678
O      10.06734      2.19095      8.28780        -1.122595     -1.276093      0.179239
O       9.54882     13.41265      8.22933         0.391828     -0.279003      1.959231
O       9.34316      5.44185      0.05212         1.189313      1.655200      0.699633
O       9.90663      6.05928     12.47066         0.449946      0.154441      1.171146
O       9.77652      5.82469      4.24014        -0.309044      0.125365      1.013883
O       9.75556      5.82860      8.49403        -0.200480      0.368037      0.866455
O       9.52457      9.99214      0.05642         0.760163     -1.344547      1.712351
O       9.82479      9.57334     12.51374        -0.092601      0.168807      0.038802
O       9.62879      9.24924      4.15521         0.540639      1.300792      1.513365
O       9.81011      9.72388      8.50311        -0.529674     -0.297655      0.617399
O       3.80598      1.59147      2.27749         2.548117      0.136886     -0.194476
O       3.85968      1.71740     14.70981         2.047720     -0.256628      0.584539
O       3.85928     13.97220      2.37309        -1.848229      0.085508      0.059308
O       3.99567     13.63951     14.45362        -3.428616      0.069915     -0.146998
O       0.18115      2.18527      2.18607        -3.065165      0.084643      0.169200
O       0.06239      2.25230     14.39551        -0.654164     -1.171171      1.450947
O      15.41164     12.99492      2.43486         2.591582      1.010077     -0.253110
O       0.11602     13.53619     14.56426        -1.811621     -0.104107     -0.035862
O       3.94498      2.35421      6.26795         0.097377     -1.410898      0.476335
O       3.85190     13.37903      6.31023         0.018144      0.395542      0.312278
O       0.16410      2.01878      6.29144        -1.118708     -1.398885      0.192953
O      15.58331     14.02173      6.44811         0.317250     -1.464385     -0.541341
O       4.02216      1.81153     10.33304        -2.598871      0.241464      0.658170
O       3.95914     13.64464     10.16415        -0.370997      0.330698      0.612619
O       0.00492      1.90771     10.53772         0.794038     -0.332075     -0.368078
O       0.04019     13.49890     10.22616        -0.350552      0.995666      0.678871
O       3.74587      5.73165      1.94099         3.759056     -0.021727     -0.006974
O       3.85379      5.54250     14.69668         0.951109      0.993847     -0.878630
O       0.19562      5.71955      2.48134         0.216999     -0.175523     -0.510242
O       0.11317      5.67646     14.48618        -1.271681      0.055701      0.188548
O       3.93483      5.76726      6.39553         0.950350     -0.323027      0.479990
O       0.08224      5.86575      6.41852         0.152119      0.038070     -0.014807
O       3.94064      5.93804     10.31998        -1.171935     -0.004972      0.615452
O       0.01246      5.89293     10.33880        -0.635219     -0.202702     -0.076342
O       3.82364      9.82819      1.71923         0.133865     -0.089546      1.660165
O       3.90678      9.61664     14.84267        -1.924507      1.061424     -1.059471
O      15.58342      9.93428      1.87881         0.113202      0.551146     -0.162423
O      15.52356      9.77410     14.75959         1.351175      0.375386     -0.022797
O       3.88295      9.95698      6.25080        -0.784705     -0.061864      0.392011
O       0.00019      9.76820      6.19174        -1.176924     -0.667890      0.420051
O       3.77059      9.87380     10.63154        -0.023560     -0.359626     -0.106562
O      15.56784     10.11901     10.50320         0.412379     -0.602845     -0.627353
O       7.83653      2.07875      2.12933        -0.271053     -0.216837     -0.059293
O       7.93252      1.93252     15.02122        -1.698924     -0.355992     -1.116022
O       7.92934     13.44609      2.25322        -0.565701      0.315907      0.482707
O       7.86116     13.55225     14.94027         0.000494     -0.329175     -0.146704
O       7.86913      1.74838      6.40395        -0.881875      0.179974      0.675683
O       7.80015     13.66317      6.25206        -0.092350     -0.030356      0.080808
O       7.70505      1.89424     10.27497         2.258668      0.405284     -0.518219
O       7.70809     13.58639     10.37365         2.131455      0.293102     -0.621585
O       7.61064      5.77835      2.27400        -0.326940     -0.283359      0.255181
O       7.83329      5.87462     14.31964         0.167503      0.379705      0.264385
O       7.81207      5.97717      6.24630         0.161940      0.700878      0.027283
O       7.85758      5.67339     10.97989         1.668558      0.890163     -1.401115
O       7.88736      9.36195      2.21348        -1.853735      1.391021      0.275998
O       7.77180      9.55232     14.60462        -0.121475     -0.721965      0.484917
O       7.70799      9.46131      6.23889         0.457228     -0.246269      0.200925
O       7.68093      9.36929     10.64600         1.210739      0.456640     -1.151064
O      11.74597      2.27091      1.96744        -0.356933     -1.798503      1.266742
O      11.67883      2.02616     14.28842        -0.369799     -0.808467      0.936848
O      11.97588     13.94902      2.52109        -1.446507     -0.915911     -2.051695
O      11.71937     13.75189     14.79405         0.458431     -0.686002     -0.006684
O      11.71772      2.37377      6.15889         0.469317     -0.455873     -0.441080
O      11.68082     13.50446      6.53802        -0.549807     -0.345971     -0.630602
O      11.66968      1.92612     10.51945         0.974174     -0.124282      0.010423
O      11.50884     13.60535     10.42434         0.569169     -0.325128     -0.601391
O      11.91369      6.25525      2.32717        -0.731820     -1.329591     -0.136989
O      11.80911      5.90869     14.38070        -0.558405     -0.364876      0.656991
O      11.73158      5.49343      6.15791         0.093798      0.070004     -0.100022
O      11.86556      5.75254     10.37821        -2.011751      0.653076      0.349100
O      11.68726      9.54842      2.33242        -0.217339     -0.548180     -0.430865
O      11.61266      9.89771     14.54981         1.339056     -0.349189     -0.296614
O      11.65875      9.87106      6.17501         1.515587     -0.333769      0.378410
O      11.79543      9.85029     10.45641        -0.735281     -0.193643     -0.212999
O       2.04840      3.86810      1.86539         0.352219     -0.064396      0.521720
O       2.07035      3.92984     15.18079        -0.993608     -1.630567      0.128004
O       1.54069      0.12479      2.46258         0.383961     -2.878884      0.020336
O       1.79095     15.54997     14.63234         0.057172     -0.298860     -0.866052
O      13.72560      3.97956      2.14731        -0.153796     -0.392685      0.492632
O      13.48607      3.74949     14.76970         0.766238      2.324135     -0.724045
O      14.07886     15.45431      2.11063        -0.331493      1.941537     -0.180010
O      13.72652      0.05522     14.53900         0.284031     -1.489563      0.999163
O       2.11847      4.02764      6.09350        -1.426030     -0.817715      0.692668
O       2.25214      0.00599      6.22966        -0.711422     -0.635743      0.415114
O      14.16913      3.82049      5.93381        -1.574866      0.009291      0.750367
O      13.42565      0.15306      6.24981         0.885536     -0.010456      0.378488
O       2.14209      3.84816     10.46763        -0.315096     -0.535957     -0.731325
O       2.12744     15.60111     10.43571        -0.840231      0.398718      0.392586
O      13.71426      3.87716     10.54312         0.052116     -0.426658      0.019424
O      13.52235     15.59890     10.57863         0.902669     -0.339191     -0.883009
O       1.97001      7.72763      1.82300        -0.330497      2.635810      2.405919
O       2.00807      7.86055     14.60634        -0.411616     -0.047952     -0.726666
O      14.25740      7.71648      2.11095        -0.865074      0.803516      0.395235
O      13.81299      7.78682     14.53168        -0.692405     -0.341014      0.038973
O       2.06743      7.92498      6.29825        -0.101461     -0.039435      0.104142
O      13.47401      7.52041      6.22455         0.493576      2.869209      0.336373
O       1.77736      7.86280     10.39800         0.800834      0.397484      0.054574
O      13.65684      7.78124     10.32794        -0.162458      0.786808      0.217673
O       2.17745     11.93644      2.02694        -0.025638     -1.806904      0.215227
O       1.84115     11.60581     14.15346         1.058494      1.200908      0.665269
O      13.32368     11.63922      1.92984         0.082687     -0.779067      0.808296
O      13.70041     11.66712     14.45595        -0.082831      1.689781      0.915447
O       1.81442     11.69195      6.06986        -0.129544      0.725631      0.889334
O      13.70268     11.58272      6.36759         0.022229      0.047118     -0.123919
O       2.08278     11.77762     10.63427         0.313326     -1.003155      0.049817
O      13.57182     11.78006     10.30160        -0.332313      0.029725     -0.353402
O       5.56242      3.76848      2.15910         0.416495      1.267727      0.265664
O       5.92611      3.77313     14.69372         0.302772     -0.458685      0.083295
O       6.02121     15.57613      2.53305        -0.177675     -0.048187     -1.289691
O       6.14751     15.57844     14.74281        -0.078361     -1.081235      0.356729
O       6.02670      3.95550      6.30517         0.307756     -0.125631      0.669523
O       5.62659     15.58766      6.46807        -0.094954     -1.180671     -1.040092
O       5.80791      3.85647     10.41832         0.344047     -0.421743      0.355860
O       5.96704      0.02121     10.77467        -0.385127     -1.613775     -0.158691
O       5.50373      7.72627      2.33626         0.451757      1.567708      0.315106
O       5.69012      7.57596     14.33107         0.134518      0.815472      0.275546
O       5.54151      7.71759      6.32113         0.508529      2.987541      0.115512
O       5.60155      7.77570     10.83118         0.196807     -0.371770     -0.500691
O       5.64318     11.68320      2.20185         0.571377      1.013205      0.190094
O       5.81912     11.65677     14.78614        -0.075259     -1.758947     -0.096817
O       6.03416     11.58507      6.44809        -0.190859      0.684151      0.034571
O       5.82138     11.83460     10.50364        -0.219632     -1.207166     -0.550934
O       9.85172      3.93412      2.18887        -0.204249     -0.976348      0.747945
O       9.73386      4.05611     14.48165         0.368844     -1.269843     -0.649176
O       9.77598     15.60474      2.13879         0.012905      1.230370      0.370264
O       9.65817     15.45889     14.80886         0.199927      2.111977      0.202869
O       9.61094      3.95106      6.31128        -0.627765      0.305351      0.204485
O       9.86403      0.04981      6.38583         0.350064     -0.928021      0.064437
O       9.84383      3.89545     10.72264        -0.467931      1.328920     -0.938854
O       9.80618     15.52662     10.38637        -0.725898     -0.668735     -0.674960
O       9.57942      7.49455      2.23254         0.623573      2.008540     -0.511974
O      10.15442      7.77728     15.00255        -1.549134     -0.363198     -1.228757
O      10.03224      7.78584      6.38961        -0.232951     -0.360650      0.447242
O      10.04501      7.77328     10.53668        -0.087686     -0.773124     -0.751548
O       9.92188     11.58643      2.24940         0.186672      0.436030      0.968223
O       9.56524     11.53608     14.73254         0.332911      2.338827     -0.505346
O       9.67991     11.56999      6.04485        -0.019328     -0.543574      0.561423
O       9.59181     11.60518     10.70831        -0.030154      0.415090     -1.451331
