  # total energy = -7849.90852995 
CRSYTAL
PRIMVEC
    15.6080000000000005    0.0000000000000000    0.0000000000000000
     0.0000000000000000   15.6080000000000005    0.0000000000000000
     0.0000000000000000    0.0000000000000000   16.6239999999999988
PRESSURE
3.43458 3.94702 2.16197 -0.447579 -0.203555 -0.056587
PRIMCOORD
320 1
Pb       4.17000      3.99326      4.24163        -0.226686      0.640887     -0.225354
Pb       4.07399      3.68104     16.61759        -0.485341      0.889130      0.462209
Pb       4.20404      0.05008      4.14322        -0.220999     -0.329690      0.454747
Pb       3.93580      0.18637      0.31562         0.054925     -1.212530     -1.368462
Pb       0.30128      3.88116      4.19675        -0.452648      0.621915     -0.607041
Pb       0.05255      3.86535      0.13041        -0.407580      0.347327      0.576049
Pb      15.49305      0.07299      4.13978        -0.366037     -0.274967      0.321794
Pb       0.02502      0.07915      0.02148         0.088131      0.192482     -0.378607
Pb       4.00400      3.75281      8.18614        -0.271619      0.649981      0.663631
Pb       3.92590      0.02098      8.68951         0.181584     -0.594033     -0.393656
Pb      15.57280      3.74074      8.32447        -0.964588      0.462205     -0.440617
Pb      15.29537     15.53488      8.11987        -0.010340     -0.215166      0.499696
Pb       3.68373      3.83444     12.27765         0.608697      0.553838      1.208031
Pb       3.81738      0.33938     12.37807         0.117501     -0.997847      0.921626
Pb       0.22774      3.91065     12.41494        -2.276105     -0.222351      1.324146
Pb      15.25463     15.34765     11.97449         1.412619      0.887132      2.660961
Pb       3.93402      8.18506      4.15348        -0.145394     -1.037329      0.063342
Pb       4.02019      7.94072     16.62141        -1.279228     -0.440786      0.211817
Pb       0.13886      7.69062      4.14474        -0.052912     -0.317503      0.032577
Pb       0.06516      8.15345     16.49129         0.681352     -1.032241      0.560327
Pb       4.15642      7.91786      8.65816        -1.667975     -1.193698      0.113765
Pb       0.02811      7.79848      8.52338        -0.293793      0.479608      0.773745
Pb       3.82210      7.54748     12.73138        -0.309619      0.238738     -0.541515
Pb      15.58557      7.59993     12.49555         0.470545      0.513534      0.182620
Pb       3.71218     11.97831      4.58385         0.629577     -0.602131     -0.391823
Pb       3.51707     11.83977      0.27697         0.339601      0.347109     -0.274563
Pb       0.19920     11.61690      4.13283        -0.646680      0.639678      0.193676
Pb      15.42593     11.61976     16.39996         0.259784      0.842676      0.283180
Pb       3.78559     11.53012      8.28005        -0.008464      0.235353      0.808186
Pb      15.47252     11.60795      8.18163        -0.207714      0.007276      1.230296
Pb       4.40934     11.86101     12.45852        -2.669661     -1.456015      0.476545
Pb      15.31576     11.78100     12.49906         0.080298     -0.406089     -0.580930
Pb       8.14808      3.96739      3.67332        -1.904819     -1.168970      1.528154
Pb       7.84365      3.98934     16.43189        -1.139364     -1.001372      0.427081
Pb       8.30853     15.57374      4.11641        -1.606205      0.617615     -0.245230
Pb       7.62528     15.29936     16.54569         0.380308      1.703622     -0.155614
Pb       7.48714      4.04697      7.91687         1.941729     -0.927699      3.083476
Pb       7.69469      0.04336      8.36060        -0.180345     -0.441577      0.528788
Pb       7.88777      3.91663     12.40014        -0.119343     -0.403524      1.035990
Pb       8.18724      0.27989     12.66595        -2.500644     -1.272941      1.239102
Pb       7.56614      7.86270      4.07723         0.791793      0.129739      0.293339
Pb       7.62833      7.89974      0.21020         0.935053     -0.633908     -0.865879
Pb       7.68141      8.03576      8.27158         1.039553     -1.180050      0.847820
Pb       7.71809      8.06364     12.48738        -0.584820     -2.334910      0.625905
Pb       7.68967     11.82084      4.02809        -0.089924     -0.356821      0.559566
Pb       7.97374     12.12669     16.57451        -0.333038     -2.038722      0.085153
Pb       7.61231     11.44196      7.96001         0.759415      0.553624      2.451224
Pb       7.90078     11.42945     12.70848         0.171888      1.633398     -0.267717
Pb      11.31723      3.79872      3.94979         1.968126     -0.868624      0.707369
Pb      11.80830      3.71720     16.54047         0.517268      0.547103     -0.214548
Pb      11.66686     15.39924      4.30642         0.723787     -0.045574     -0.499007
Pb      12.01816     15.60702      0.27341        -0.406597     -0.287049     -1.416963
Pb      11.54236      4.05731      8.56397         0.517716     -0.136435     -1.044318
Pb      11.59262      0.24427      8.12609         0.825485     -0.625400      0.560605
Pb      11.53710      3.47184     12.35874         0.989828      1.175568      1.763800
Pb      11.52132     15.27232     12.31478         0.734201     -0.099812      0.540647
Pb      11.17654      7.55541      4.20940         2.494726      1.042055     -0.332279
Pb      11.95309      7.91530     16.57238        -0.804901     -0.720597      0.944181
Pb      11.92485      7.58163      8.76530        -0.342621      0.725310     -0.484288
Pb      11.57322      7.71058     12.63432         0.763334     -0.230024     -0.471980
Pb      11.37562     11.46969      3.87501         1.277905      0.815894      1.339749
Pb      11.89664     11.41064     16.24953        -0.882243      2.063627      1.430228
Pb      11.26503     11.68099      8.24096         1.815557      0.309011      1.277002
Pb      11.76575     11.56987     12.37817        -0.750668      0.762609     -0.002552
Ti       2.16321      1.84058      2.36665        -2.989025      1.368008     -2.576074
Ti       1.84959      1.89398     14.76127        -0.542199      0.473129      0.843542
Ti       1.92712     13.82358      2.35615        -0.262136     -1.171340     -0.249469
Ti       1.83088     13.81786     14.23961         0.157409      1.251876     -0.431663
Ti      13.72329      2.15540      2.18945         0.245981     -0.906460     -0.965239
Ti      13.69121      1.97368     14.70913         0.181322     -0.500202     -0.297917
Ti      13.67819     13.71868      2.05862        -0.627104     -2.370632     -0.662488
Ti      13.65119     13.74561     14.48092        -0.507155     -1.231943     -0.264833
Ti       1.88640      1.97343      6.29196        -0.893056     -0.270105      1.474371
Ti       1.95139     13.76182      6.62692        -0.814933     -0.944617      0.056578
Ti      13.51263      1.82304      5.94091        -0.356654      2.033123      2.239008
Ti      13.38274     13.45432      6.36707         1.761285     -0.497024     -0.116924
Ti       1.81424      1.93822     10.20115        -0.495981     -0.309559      1.195407
Ti       1.86060     13.69611     10.48367         0.080237     -1.388781      1.356071
Ti      13.64721      1.93449     10.56457        -0.030635     -0.004319     -0.845682
Ti      13.39175     13.60570     10.29745        -0.188373     -0.629776      0.010186
Ti       2.05791      5.83730      2.14864         0.536103     -0.199719      0.468719
Ti       2.01228      5.82919     15.01944        -1.011394     -0.573340     -1.422113
Ti      13.64315      6.07539      2.42285         0.357789     -1.537518     -2.300550
Ti      13.68230      5.88276     14.96612         0.966074     -1.945042     -2.439062
Ti       2.23541      5.86257      6.71979        -1.579130      0.789177     -0.943988
Ti      13.84753      5.73144      6.30539        -2.018626     -0.070538     -0.276910
Ti       2.06371      5.78225     10.44619        -1.728237      2.378635      3.108021
Ti      13.63161      5.79918     10.82257         1.190190     -0.116477      0.375419
Ti       2.10170      9.78769      2.31574        -0.947981     -0.111177     -2.727560
Ti       2.16997     10.07085     14.66247        -1.973324     -2.154354     -1.014302
Ti      13.65776      9.86885      2.35895         0.049824     -1.122399     -1.447219
Ti      13.65440      9.67063     14.53846         0.353462      1.028461     -1.951265
Ti       1.74556      9.65962      6.55802         1.059729      0.176043     -0.151436
Ti      13.51780      9.50990      6.23280         1.824957     -0.116965      4.462163
Ti       1.82960      9.95386     10.91321        -1.738129     -1.575629     -1.586417
Ti      13.50869      9.70602     10.61303         1.228249     -0.421274      0.446283
Ti       6.14855      1.92382      2.29240        -0.454543     -0.521854     -1.940225
Ti       5.83305      1.78523     14.81339         1.474203      0.103817     -1.447959
Ti       5.80496     13.66378      2.25830         0.302183      0.178292     -0.298223
Ti       5.66306     13.54952     14.71265        -0.051949      2.799096      0.330887
Ti       5.71197      1.89339      6.23726         1.465609     -0.090880     -0.894482
Ti       5.86974     13.62393      6.41953        -1.105932     -0.028552     -0.877591
Ti       5.84369      1.92678     10.44683         1.303522      0.000379      0.490097
Ti       5.81624     13.61155     10.68071        -1.050159      0.603999     -1.727523
Ti       5.82644      5.80737      2.11246        -0.708118     -0.148135     -1.327072
Ti       5.79220      5.83494     14.76678         0.609614     -0.589650     -1.684694
Ti       6.16382      5.99817      6.27619        -2.678370     -2.151144      1.888671
Ti       5.98482      5.73842     10.64724        -0.289696      2.762458     -0.871457
Ti       5.90839      9.93132      2.07616        -1.280284      0.408535      0.420798
Ti       5.84835      9.76681     14.77940         0.067191     -0.409960     -1.066768
Ti       5.78296      9.66160      6.37286        -0.944224      1.883934     -1.574956
Ti       5.62763      9.59031     10.69901         0.381365      0.561800     -0.322726
Ti       9.86397      1.73816      1.80937        -0.263744      1.559263     -0.390327
Ti       9.80695      1.89846     14.80894        -0.458740     -0.708614     -1.008627
Ti       9.79503     13.54268      2.09229         0.807311      1.071621     -1.948499
Ti       9.80236     13.63221     14.66620         0.602518      0.437191     -1.387443
Ti       9.50880      1.96292      6.44167         2.851825      1.124653     -1.486228
Ti       9.61068     13.60998      6.38074         0.797619     -0.075265     -0.255341
Ti       9.78037      1.76148     10.48579        -1.030374      1.721835      0.258590
Ti       9.33463     13.46521     10.57667         2.257343     -0.330055      0.658812
Ti       9.73846      5.75934      1.94933         0.966886      0.897109     -2.103926
Ti       9.74551      5.93735     14.85332         0.395450     -0.088560     -1.900834
Ti       9.96781      5.81457      6.19412        -0.074421     -0.500017      1.777120
Ti       9.85582      5.73266     10.68829        -0.826476      0.986160     -0.865894
Ti       9.65121      9.56691      2.13944         0.906399      2.328414     -2.288606
Ti       9.71054      9.64531     14.49994         0.788734      1.146780      5.870149
Ti       9.95141      9.54787      6.42136        -1.386049     -0.258945     -0.652829
Ti       9.58162      9.61758     10.42926         0.999306     -0.483638      0.301220
O       1.87691      1.40732      0.42816         0.596556      0.560954      1.821467
O       1.88021      2.26607     13.01021         0.832561     -0.462207      0.141894
O       1.98195     13.98714      0.64016         0.118791     -0.169363     -0.175954
O       1.74894     14.00041     12.36042         0.102446     -0.277342      3.391325
O      13.55268      1.87486      0.26591        -0.047976     -0.157705      1.606208
O      13.76720      1.83485     12.96785        -0.256142     -0.316545     -1.671633
O      13.66492     13.44845      0.18621         0.115772      0.282960      1.471400
O      13.48253     13.61024     12.60435         0.144610      0.439529      0.371727
O       2.05664      2.14414      4.55692         0.511739      0.135479     -1.781094
O       1.81202     13.28756      4.89438        -0.192318      0.818685     -1.089342
O      13.41041      1.76206      4.15132         0.596189      0.052498      0.358102
O      13.33503     13.62368      4.56283        -0.001248      0.359677     -0.794621
O       1.88015      1.94023      8.45353        -0.048048      0.236614     -0.338963
O       1.77103     13.40019      8.75455         0.813645     -0.048264     -3.078306
O      13.70420      1.87876      8.75765        -0.197343     -0.227534      0.359618
O      13.16731     13.79703      8.52492         0.665596     -0.272474      0.313251
O       2.17154      6.00812      0.45176        -0.046472     -0.094282     -1.094136
O       1.83754      5.33604     13.13947         1.074457      1.783193      1.242548
O      13.62825      6.10148      0.53752         0.268632      0.155723      0.828648
O      13.83985      5.87997     13.11341        -0.284074      0.237105      0.389580
O       2.18212      5.80344      4.89559        -0.187737      0.195622      0.197867
O      13.79857      5.79551      4.52814         0.381222     -0.397156     -1.061142
O       1.85445      5.86669      8.79830        -0.252261     -0.174368     -3.443626
O      13.27129      5.76248      9.03792         0.400149     -0.756757     -1.415769
O       2.10534      9.88112      0.45344        -0.493187     -0.262585      0.417595
O       2.18922      9.84815     12.90731         0.184556     -0.030363      0.519180
O      13.62219      9.84461      0.36844         0.116811     -0.136050      0.103314
O      13.35942      9.67902     12.76018         0.676289     -0.341225      1.671521
O       2.04081      9.83902      4.66268        -0.263788     -0.706278     -0.846779
O      13.50380      9.75083      4.61452         0.490042      0.449775     -4.643873
O       1.34078      9.88383      9.01089         1.135239     -0.199983      0.412161
O      13.66601      9.50457      8.89005         0.093605      0.231158     -1.315299
O       6.07818      1.73234      0.38149        -0.480287      0.082631      1.532734
O       5.60000      1.70814     12.97776        -0.089087      0.653170     -0.468475
O       5.67955     13.73453      0.46288         0.274365     -0.250974      0.147882
O       5.70869     13.65110     12.95494         0.090593      0.177850     -1.222628
O       5.84735      2.14344      4.37748        -0.258006     -0.924410      0.701130
O       5.78764     13.32031      4.59430         0.452117      0.754358      0.683171
O       5.73575      1.74126      8.63250        -0.242483      0.659368     -0.239275
O       5.78524     13.63483      8.89630         0.148024      0.326547     -0.747620
O       5.78695      5.85820      0.27991         0.046870      0.260566      1.176336
O       5.75698      5.85723     12.90117         0.144323     -0.408620      0.880424
O       5.98679      5.60630      4.63547        -0.455142     -0.019928     -3.058742
O       6.22733      5.90835      8.78235        -0.570884      0.357158     -0.629840
O       6.02245      9.69505      0.30711        -0.257473      0.195454     -0.981267
O       5.77151      9.52614     12.83622        -0.186958      0.827039      0.549836
O       5.60607      9.99600      4.58623         0.234131     -0.916221     -0.093690
O       5.88746      9.50023      8.79897        -0.240224      0.245608     -0.824969
O       9.65323      1.47542      0.06337         0.491256      0.539562      0.854117
O       9.70077      1.91221     12.89575         0.629743      0.658718     -1.376687
O       9.82259     13.53157      0.19486        -0.710907      0.280602      0.714913
O       9.48334     13.51988     12.81200         0.788641     -0.015656      0.007334
O       9.62434      2.08123      4.57989         0.056502     -0.225021     -0.150579
O       9.77231     13.67685      4.56471        -0.475706      0.000078      0.123686
O       9.67127      1.83639      8.75652         0.041766      0.098236     -2.916693
O       9.31015     13.47853      8.78948         0.533663      0.121103     -0.347470
O       9.66031      6.10637      0.17567         0.726044     -0.762763      2.939122
O       9.78598      5.42743     13.09741        -0.248778      0.811860     -0.503931
O       9.80343      5.62620      4.34247        -0.567066      0.385416     -1.128694
O       9.95803      5.91190      8.82252         0.535985     -1.343973      0.501822
O       9.53255      9.67542      0.32056         0.145646     -0.107199      1.288160
O       9.60954      9.61396     12.86447         0.406591      0.029279     -5.877351
O       9.86463      9.41195      4.62742        -0.481316      1.490061     -1.026360
O       9.59257      9.72915      8.63790         0.373828     -0.325323     -1.077122
O       3.94896      1.55413      2.22276         1.302034      0.784704      1.397375
O       3.80854      1.81712     15.29702        -0.030941     -0.157281     -1.398524
O       3.88104     13.75791      2.80762        -0.146277     -0.054955     -0.656273
O       3.67006     14.01394     14.76819        -0.183369     -0.829674     -0.173826
O       0.07849      1.92460      2.43388        -0.996849     -0.972035      0.911860
O      15.53634      2.08825     15.29497         1.046926     -0.516995     -0.722974
O      15.55251     13.54252      2.50590         0.077260      0.273307      0.486566
O      15.58660     13.58859     14.49431         0.329617     -0.902295      0.773247
O       3.89875      1.79879      6.47354        -0.012139      0.325597      0.424217
O       3.92294     13.53940      6.62643        -1.360365      0.652803      0.412255
O      15.54312      1.99612      6.16679         0.680102     -0.235857      0.316541
O      15.30160     13.54562      6.63225         1.198854      0.079818      0.306101
O       3.71583      2.04248     10.73594         0.256024     -0.035296     -0.869457
O       3.79875     13.46785     10.85335         0.240967      0.163350     -0.767973
O       0.01641      1.89454     10.76751        -0.130473     -0.258921     -0.653716
O      15.32498     13.62330     10.42729         0.482410      0.016546      0.036773
O       4.00156      5.71214      2.58867        -0.167935      0.034852      0.072561
O       3.95235      5.71000     15.01122        -0.704169     -0.050159      0.017471
O       0.21519      5.96691      2.59474        -0.827441     -0.114625      0.296433
O      15.56589      5.90109     15.42468         1.603427      0.133503     -0.755901
O       4.01289      5.97855      7.06592         0.406630     -0.471578     -0.774838
O      15.57957      5.69433      6.70633         1.261293     -0.357855      0.480820
O       3.85517      5.77188     10.66705         0.659864     -0.470575      0.439298
O      15.55542      5.87827     10.92166        -0.131151     -0.257568     -0.288942
O       3.99751      9.72734      2.25409         0.225935     -0.073223      0.965617
O       3.90818      9.89313     15.10463         2.410391     -0.401383      0.224179
O      15.58186      9.81893      2.27271         0.164919     -0.253677      1.394988
O       0.13822      9.92640     14.81561        -1.227949     -0.772674      0.223503
O       3.91843      9.36214      6.84200         0.405361      1.392479     -0.412340
O      15.55157      9.72902      6.72943        -1.258784     -0.035657     -1.109647
O       3.71087      9.87285     10.63121         2.032119     -0.233707     -0.126446
O      15.42605      9.69654     11.32027         0.092205      0.027419     -0.778107
O       7.95564      1.77836      2.41775         0.134303      0.527062      0.059080
O       7.81915      1.90840     14.75216        -1.102677     -0.383116      0.486559
O       7.83741     13.55306      2.43546        -0.218378      0.847186      0.009439
O       7.68055     13.66613     14.83371        -0.419434     -0.698592      1.007458
O       7.76873      2.14708      6.41634        -2.238042     -0.099452      0.691949
O       7.66252     13.35716      6.66714         1.543332      0.524652     -0.629276
O       7.69534      1.98141     10.55677        -0.917087     -0.348284      0.788528
O       7.57362     13.63017     11.06721         1.237367      0.174068     -0.398250
O       7.80053      5.82042      2.19113         1.139749     -0.141456      0.496206
O       7.82785      6.02471     15.11774        -0.673831     -0.641751     -0.704652
O       7.90941      5.62921      6.45910         0.958728      0.794158     -0.306398
O       7.79300      5.74760     11.01836         1.761038      0.589936     -0.075503
O       7.67920      9.66604      2.50129         0.965802      0.072338      0.712320
O       7.87038      9.55599     14.60653        -3.399875      0.172853      1.230045
O       7.68309      9.76716      6.38778         0.442466     -0.291517      0.665127
O       7.66275      9.41637     10.65016         1.149266     -0.053127      0.462032
O      11.68903      2.01256      2.28312        -0.140774      0.172937     -0.511854
O      11.75160      1.90460     14.90380        -1.296660     -0.107619      0.285284
O      11.64002     13.50093      2.17885         0.095325      0.238415      0.864139
O      11.73324     13.57451     14.70119        -1.595573     -0.162383      0.116457
O      11.50078      1.61241      6.27075         1.197730     -0.156830      0.476890
O      11.53742     13.84565      6.60668        -2.493103      0.264155      0.147712
O      11.61643      1.74857     10.71489         0.645269      0.328975      0.063575
O      11.41277     13.41763     10.79921        -0.129038      0.679420     -0.338373
O      11.76298      5.73512      2.27834        -2.164184     -0.031433      0.748198
O      11.82692      5.95441     15.12873        -1.692621     -0.262330      0.094121
O      11.77707      5.77293      6.41317        -0.221034      0.967647      0.406335
O      11.82461      5.72438     11.31524        -2.657638     -0.201891     -0.821519
O      11.54548      9.69259      2.42690        -0.169928     -0.045322     -0.266813
O      11.68752      9.77333     14.71860         0.697629     -0.510689      0.496555
O      11.75675      9.33002      6.62073        -1.713321      0.523853      0.689262
O      11.58377      9.51088     10.79160        -0.794461      0.660979     -0.098986
O       1.96123      3.78439      2.12159         0.584619     -0.182484      1.394619
O       1.93685      3.85894     15.51293         0.657220      0.030348     -1.071600
O       1.84435      0.02572      2.97580         0.816617     -0.937210     -0.337162
O       1.29876      0.09762     14.60235         1.734362     -1.094699      0.262530
O      13.98538      3.87493      2.26105        -1.107796      1.156436      0.852558
O      13.61070      3.79811     14.92668        -0.173728      2.049746      0.814327
O      13.40647     15.48540      2.15267         0.987173      0.226345      0.924486
O      13.65750     15.44051     14.85954         0.180297      2.266863      0.654078
O       1.90878      3.86033      6.92368         1.111016      0.394029     -1.022505
O       1.80296     15.59255      6.59134         0.208763     -0.255946     -0.137945
O      13.52600      3.62948      6.60495         0.162503      0.511474     -0.415585
O      13.74843      0.03765      6.48528        -1.197849      0.210817     -0.413383
O       1.66147      3.96341     10.69763         1.493254     -1.810390     -0.809501
O       1.89869      0.02370     10.18837         0.490000     -0.179063      1.002121
O      13.58728      3.73306     10.87248        -0.147714      0.460302     -0.191036
O      13.48615     15.50226     10.68146        -1.257847      0.299767     -0.534434
O       2.11899      7.78573      2.41746        -0.099557      1.257363      1.193995
O       2.17846      7.81442     15.03243        -0.477143     -0.574597     -0.150421
O      13.48949      7.82687      2.73751         0.849662      0.813755     -0.156383
O      13.70709      7.82596     15.04559         0.188212      1.707908     -0.458477
O       1.87647      7.91067      7.18333         0.258893     -1.909158     -1.350360
O      13.81546      7.63771      6.55270        -0.121148      0.399897      0.157510
O       1.84473      7.80136     11.05094         0.621410     -0.976842     -0.244957
O      13.54585      7.70608     10.82970        -0.114145     -0.206406      0.627189
O       2.11611     11.73924      2.31526        -0.501336      0.271847      1.489974
O       2.04057     11.85163     15.05349        -0.299596      1.474014     -0.503102
O      13.39722     11.60133      2.53158         0.853336      0.901667      0.088812
O      13.65359     11.71973     14.60090         0.011655     -1.951039      1.303990
O       1.93284     11.50725      6.80724         0.481555      0.795347      0.177102
O      13.26748     11.61352      6.71054         0.028177     -0.248950     -0.246429
O       1.61186     11.72298     11.17145         0.819719      1.138862     -1.217734
O      13.49497     11.66503     10.71750        -0.189444     -0.225945     -0.043235
O       5.88583      3.79103      2.26735         0.207473      0.062617      0.655778
O       5.90600      3.72663     15.00971        -0.363544      1.460215      0.059945
O       6.15051     15.43725      2.74344        -1.068236      1.539580      0.054053
O       5.86386     15.52801     15.03497        -0.189019     -0.377411      0.176660
O       5.69676      3.86927      6.56930        -0.525809     -0.466179      0.159749
O       6.09159     15.58797      6.50981        -0.591353     -0.023460     -0.235878
O       5.84953      4.01810     10.74802        -0.761343     -4.704346      0.041935
O       5.50299      0.00590     10.73331         0.218133      0.506786     -0.233784
O       5.88328      7.65965      2.51310        -0.245488      1.022997     -0.048862
O       5.66511      7.77130     14.86212         0.281045      0.957086      0.715504
O       6.06810      7.75628      6.27331        -0.262430      1.550155      0.453889
O       5.60081      7.65308     10.90820         0.074598      1.539674      0.014469
O       5.92943     11.76259      2.26302        -0.093471     -1.081299      0.468010
O       5.74077     11.70331     14.87619         0.353419     -1.099349      0.106754
O       5.69855     11.66134      6.80040        -0.736639     -0.821328     -0.324010
O       6.07234     11.47635     10.81072        -1.174880      0.966389      0.592157
O       9.77343      3.70843      1.80777        -0.556644      2.763677      1.557885
O       9.62327      3.72587     15.12964         1.434270      1.588034     -0.056439
O       9.93795      0.04043      2.19663        -0.487992     -3.552808      1.830880
O       9.54776     15.51931     14.60181         0.769301     -0.679983      0.489572
O      10.03284      4.01024      6.52591        -1.210646     -2.166235      0.781822
O       9.25502     15.59054      6.65626         0.995079     -0.783658     -0.413234
O       9.75593      3.81666     10.71965         0.294887     -0.390005      0.310901
O       9.61089     15.58408     10.79837        -0.222850     -1.994100     -0.280500
O       9.63045      7.81593      2.40562        -0.156661     -2.915163      0.155879
O       9.88612      7.82283     14.78477         0.113233     -1.276037      0.028318
O       9.59980      7.72518      6.43762         0.033543     -0.978743      0.599082
O       9.81629      7.59424     10.62917        -0.247021      1.252101      1.471931
O       9.54930     11.78896      2.47177         0.383605     -2.441005     -0.043200
O       9.51071     11.65816     14.84215         0.554360     -0.314138     -0.153606
O       9.82740     11.57397      6.51818        -0.418484      0.787362     -0.235897
O       9.57759     11.41019     10.90066        -0.577970      1.559294     -0.345405
