  # total energy = -7837.45868360 
CRSYTAL
PRIMVEC
    15.6080000000000005    0.0000000000000000    0.0000000000000000
     0.0000000000000000   15.6080000000000005    0.0000000000000000
     0.0000000000000000    0.0000000000000000   16.6239999999999988
PRESSURE
3.48514 4.73725 1.15122 -0.204034 0.178739 0.452836
PRIMCOORD
320 1
Pb       4.28942      4.07016      4.29567        -1.778941     -1.370496     -1.211012
Pb       4.14845      3.65507      0.02298        -1.894125      1.913714      0.046057
Pb       4.30565      0.09049      4.20961        -1.513089     -0.156270     -0.299360
Pb       3.95516      0.19820      0.45326        -0.908176     -0.939260      0.096149
Pb       0.44314      3.93578      4.20910        -1.000855      0.963027      0.796541
Pb       0.07064      3.88971      0.25651         0.260558      0.218972     -0.699564
Pb      15.43271      0.08012      4.18194        -0.489844     -1.289866      0.276040
Pb       0.05011      0.09565      0.06839         0.267706     -1.173512      0.028117
Pb       4.03349      3.71014      8.18980        -0.938125     -0.161448      0.498795
Pb       3.95701     15.60743      8.84725        -0.726662      0.743981     -1.581872
Pb      15.52624      3.72658      8.29284        -0.028247      0.314922     -0.725615
Pb      15.16120     15.48563      8.04349         1.020209      0.123718      0.351232
Pb       3.63664      3.83457     12.26441         1.859282      0.365077     -0.316765
Pb       3.79504      0.45784     12.39735        -1.142477     -1.115570     -0.035777
Pb       0.27808      3.90160     12.47772        -0.282666     -0.970298      0.078748
Pb      15.16903     15.31023     11.89062         1.201687      0.762832      0.898648
Pb       3.95756      8.28731      4.17636        -1.491478     -1.716944      0.036707
Pb       4.00189      7.98667      0.05722        -0.107577     -0.423750     -0.526512
Pb       0.20968      7.63927      4.15746         0.003956      0.314557      0.572564
Pb       0.14907      8.27222     16.50135        -0.809823     -2.682690      0.303684
Pb       4.21542      7.91220      8.83560        -0.834564     -0.405673     -0.671475
Pb       0.02203      7.80850      8.65160         0.521214     -0.381754     -1.314131
Pb       3.78729      7.44267     12.86671         0.139982      1.136460     -0.969696
Pb      15.60319      7.52512     12.57182         0.795124      0.898992      0.460907
Pb       3.63283     12.10007      4.77579         0.373119     -1.004577     -1.536347
Pb       3.35889     11.93680      0.40786         2.118376     -0.442986     -0.782886
Pb       0.26024     11.61905      4.17005        -2.406581      0.321793      1.913475
Pb      15.37594     11.64373     16.32814         1.485456      1.895849      1.105353
Pb       3.71955     11.50634      8.40674        -0.215844      0.398162     -0.376047
Pb      15.39476     11.58276      8.20594         0.366423      0.129852     -0.249170
Pb       4.49155     11.86341     12.54312        -3.415013      0.018790      0.687038
Pb      15.18259     11.82965     12.50175         1.405693     -0.114546     -1.176376
Pb       8.19480      3.97959      3.57100        -3.176189      0.058563      3.287882
Pb       7.80995      3.98856     16.41824         0.446735     -0.221774      0.391000
Pb       8.46895     15.58839      4.13639        -3.149864     -0.864760     -0.391881
Pb       7.60170     15.23869     16.56314         0.337376      1.399848      0.267995
Pb       7.46262      4.05057      7.93652         0.282999      0.321882      0.848386
Pb       7.65647      0.05161      8.40966         0.596709     -0.940191     -1.003460
Pb       7.93111      3.90785     12.43687        -0.289363      0.806297     -0.095553
Pb       8.23367      0.31556     12.82291        -1.160382     -1.116364     -1.596370
Pb       7.49273      7.88384      4.05923         1.309068     -0.535547      0.734915
Pb       7.59886      7.92037      0.28592        -0.634486     -0.583020     -1.606808
Pb       7.68959      8.10372      8.30167         0.262789     -1.699051     -0.383211
Pb       7.66309      8.06676     12.57203         0.638430     -1.647438      0.445366
Pb       7.65651     11.85765      4.03227         0.299224     -0.273642      0.222461
Pb       8.02801     12.15454     16.61066        -1.869805     -1.915729      0.313527
Pb       7.58797     11.37547      7.96346         0.965635      1.916619      1.058367
Pb       7.95852     11.40491     12.81992         0.149904      0.803549     -0.862200
Pb      11.25259      3.71167      3.89342         2.667795      0.667081      0.815216
Pb      11.87953      3.69909     16.54110        -1.037613      1.178740     -0.060535
Pb      11.69679     15.27772      4.37047         0.724764      0.941205     -0.447019
Pb      12.17895     15.59194      0.37072        -0.847179      0.634101     -0.378195
Pb      11.54817      4.08301      8.64721         0.254499      0.245319     -0.850939
Pb      11.59356      0.37014      8.12451         0.085420     -2.101678      0.384011
Pb      11.52721      3.33923     12.44229         0.434278      2.206970      0.481393
Pb      11.46626     15.15027     12.26921         1.196133      2.099390     -0.769699
Pb      11.07723      7.50753      4.22746         1.329596      0.449740      0.192221
Pb      12.03033      7.92622      0.01117        -0.423135     -0.775595     -0.909073
Pb      12.02096      7.52670      8.94758        -0.776082     -0.011125     -1.737297
Pb      11.54076      7.66143     12.72572         0.203485      0.467427      0.239370
Pb      11.30860     11.43456      3.88839         0.645324     -0.215845      1.011189
Pb      11.94570     11.39803     16.19441        -1.344792      0.329821      1.608346
Pb      11.14622     11.68084      8.28020         0.417781     -0.491889     -0.634197
Pb      11.71975     11.55103     12.35133        -0.501490     -0.829472     -0.976633
Ti       1.85107      1.89504      2.45145         2.271481     -1.038491     -0.313909
Ti       1.90546      1.85120     14.78701         0.954973      2.994688     -0.703023
Ti       1.87135     13.67429      2.52830        -0.099670      0.943662     -0.673448
Ti       1.75511     13.69317     14.47691         0.474661      0.700052     -1.961433
Ti      13.67554      2.01137      2.17740        -1.090158     -0.956015      1.594460
Ti      13.73639      1.88082     14.40971        -0.247730      0.085905      1.051769
Ti      13.54027     13.35994      2.06018         2.738684      3.660837      0.988734
Ti      13.42988     13.69054     14.65343         2.473714      1.530875     -0.111634
Ti       1.92810      1.91352      6.13273         1.188204      0.259253      0.871195
Ti       1.76222     13.78942      6.58686         1.617668      0.369838     -0.948016
Ti      13.51283      2.04148      6.11584         1.143092      0.206589     -0.211564
Ti      13.44327     13.38736      6.14995        -1.127096      0.199594      1.216646
Ti       1.76397      1.83643     10.26822         0.013350     -0.381912     -0.114842
Ti       2.01288     13.55100     10.38578        -1.485891      0.258888      0.173275
Ti      13.44490      1.85080     10.41135         0.814859     -0.668670      0.939521
Ti      13.37263     13.42456     10.07835         0.249224      0.529148      1.583893
Ti       2.09375      5.87596      2.26188        -0.160366      0.753707     -0.241393
Ti       2.02610      5.69365     14.88272         0.262176      1.938256      0.467020
Ti      13.74614      5.99908      2.20586         0.426059     -0.789636      0.725778
Ti      13.84263      5.71000     14.73414        -1.982731      1.560613      0.390566
Ti       2.04519      5.85452      6.51923        -0.051679     -0.759974     -1.584366
Ti      13.78023      5.72582      6.17021        -0.979441      0.279129      0.766946
Ti       1.96537      5.82357     10.55020         1.220214      0.068691     -0.211343
Ti      13.75525      5.57414     10.84234        -1.626025      2.346853     -1.364126
Ti       1.89079      9.75963      1.99699         1.354907      0.421156      3.849402
Ti       1.95197      9.77504     14.54880         1.788438      2.978489     -1.152673
Ti      13.78814      9.66927      2.37759         0.985763      0.056264      1.030690
Ti      13.81722      9.72861     14.37198        -2.164769     -1.824684     -1.308318
Ti       1.81794      9.62130      6.29805         0.557221      0.424069      0.407148
Ti      13.61388      9.51769      6.27524        -1.384988      0.115764     -0.790631
Ti       1.88707      9.68191     10.63345         1.391516      0.689944      2.370202
Ti      13.76488      9.47317     10.53651        -1.575144      2.000003      0.265908
Ti       5.97065      2.00857      2.09799        -0.655806     -0.972506      1.976757
Ti       5.82935      1.97920     14.42485        -0.939817      0.260220      0.997008
Ti       5.88719     13.67305      2.23139        -0.862502     -0.423192     -0.268486
Ti       5.51493     13.99199     14.35486         0.441223     -1.975430      1.576340
Ti       5.83266      1.83258      6.21115        -0.738571     -0.476002      1.385534
Ti       5.70823     13.68317      6.29086         1.175840      0.523271      0.422661
Ti       6.10529      1.93425     10.53778        -1.759385      1.299139     -1.285255
Ti       5.85349     13.86933     10.26243         1.308606     -3.719447      1.582566
Ti       5.80764      5.98880      2.08464        -0.178481     -0.981290      0.438947
Ti       5.81597      5.74138     14.58168         0.546583      1.759589      1.107282
Ti       5.74153      5.89079      6.05366         3.079380      1.565882     -0.556319
Ti       5.85883      5.89597     10.55134        -0.267064     -0.874592      0.821569
Ti       5.81745      9.83819      2.22027        -0.154679      2.904014     -1.183415
Ti       5.72985      9.87267     14.64730        -0.456113     -0.521591      1.327922
Ti       5.72679      9.72120      6.18962        -0.674006     -0.919420      0.046424
Ti       5.81637      9.88173     10.67156        -1.000470     -0.948699     -1.051131
Ti       9.77588      1.89499      1.85885         0.637917     -0.987523     -0.199226
Ti       9.85329      1.87672     14.70487         1.031490      0.731042      0.789614
Ti       9.98791     13.67736      1.86680        -2.399485     -1.204345      1.792063
Ti       9.77635     13.56016     14.38326         0.031242      0.563679      3.153749
Ti       9.63271      1.86904      6.25831        -0.605449      0.941588      0.457321
Ti       9.50989     13.53015      6.20307         0.524023     -0.821283      0.597238
Ti       9.65150      1.90963     10.18060         1.350223     -0.604481      0.336031
Ti       9.50648     13.43850     10.48031        -0.994790      1.394036     -2.513651
Ti       9.82784      6.01750      1.84846        -0.126739     -1.269427     -1.683964
Ti       9.77791      5.85537     14.50542         0.299494      0.168722      2.398780
Ti       9.78737      5.67379      6.41711        -0.385536      1.001465     -0.635405
Ti       9.71553      5.83120     10.65830        -1.139118     -0.551713     -0.672448
Ti       9.59598      9.78329      1.81857        -0.471383     -5.108635      1.689945
Ti       9.61846      9.64277     14.93296         0.451999     -1.439780     -4.639507
Ti       9.70826      9.49889      6.15010         1.377049     -0.170189      1.299886
Ti       9.70160      9.54485     10.46679         0.783084      2.069052      0.072208
O       2.00900      1.90998      0.61989        -0.042154      0.198006     -1.704700
O       2.17978      2.25072     12.99424        -2.008272     -1.120889     -0.734936
O       2.11746     13.64191      0.64476        -1.513845      0.982258     -0.306108
O       1.84299     13.74906     12.60504        -0.840975      0.066522      1.389336
O      13.90578      1.62961      0.38500        -0.434041      0.845183      0.123917
O      13.56091      1.95664     12.63044         0.278048     -0.238592      0.413802
O      13.62472     13.71684      0.19707        -0.164839     -0.864958      0.428190
O      13.46257     13.67417     12.81608         0.434129     -0.409891     -0.204571
O       2.13483      2.10989      4.27531        -0.651725     -0.331119      1.769093
O       1.92307     13.58458      4.53829        -0.083964     -0.058537      1.094726
O      13.61142      1.89312      4.38170        -0.724308      0.240525     -1.336669
O      13.37693     13.78774      4.38767         0.739748     -1.861789      0.780281
O       1.72277      1.93811      8.54991         0.241547     -0.282128     -1.290275
O       1.89630     13.50807      8.40721        -0.176307      0.433001      1.863807
O      13.29393      2.14529      8.69926         0.608658     -0.266342     -1.159283
O      13.32534     13.50087      8.37730         0.322254      0.357329     -1.121489
O       2.05264      6.20181      0.50424        -0.122227     -0.689128     -1.105752
O       2.00227      5.97476     12.93607        -0.966323     -1.894982      0.790723
O      13.79443      6.10528      0.47078        -0.011892     -0.610601     -1.204800
O      13.76507      5.79223     12.91094         0.269284     -0.312005      0.248422
O       1.91134      5.82215      4.61624         0.470746      0.378445      1.253067
O      13.86145      6.00896      4.46668        -0.625639     -0.789747     -1.513025
O       2.03237      5.72467      8.81269        -0.593406      0.612017     -1.606059
O      13.50311      5.58242      8.88214         0.042154      0.986391      0.807071
O       1.68432     10.03750      0.22614         0.322739     -0.251756     -0.069095
O       1.97783      9.73857     12.81247         0.349517      0.320578     -1.177894
O      14.03719      9.89004      0.28653        -1.523008     -0.895199      1.170681
O      13.61585      9.59804     12.48875        -0.088013      1.511965      3.107788
O       1.94924      9.58241      4.53114         0.213000      0.796606      1.465079
O      13.57876      9.75614      4.32909        -0.670317     -0.712597      0.391391
O       1.93463      9.65896      8.88845        -1.183165     -0.469335     -1.890784
O      13.76072      9.63434      8.70634         0.376277     -1.178737     -0.444864
O       5.52795      2.01534      0.34843         1.747660     -1.424897     -0.599454
O       5.70102      1.89316     12.61320         0.752348      0.039565      0.465622
O       6.03756     13.50775      0.28416        -0.835512      0.809459      0.370607
O       5.84639     13.70796     12.62184        -0.720777      0.988410      0.714791
O       5.85254      1.83309      4.49614         0.737984      0.511225     -1.124920
O       5.89874     13.78183      4.46111        -0.424848     -0.995537     -0.468434
O       5.94494      1.78261      8.56242        -0.133669      0.155365      1.137722
O       5.89851     13.73259      8.44821        -0.171985      0.217767      0.618827
O       5.78914      5.91446      0.21521         0.344254     -0.241523      1.421148
O       5.74815      5.29293     12.89978        -0.186219      1.514261     -1.139955
O       5.83866      5.82822      4.13257         0.417207      0.498398      1.988079
O       5.77149      5.87556      8.79057         0.120812     -0.154112     -0.716241
O       5.94781      9.53541      0.31718        -0.164415      1.014635     -0.087487
O       5.52068      9.75952     12.72671         1.492167     -0.289731      0.000680
O       5.81245      9.62400      4.30512         0.173145      1.089907      1.195206
O       5.76086      9.77564      8.57578         0.435859     -0.604061      0.510380
O       9.88365      1.80535      0.08609        -0.639806      0.098227     -0.274855
O       9.69261      2.14456     12.61707        -0.681104     -1.931801      2.472655
O       9.85956     13.68386      0.11850        -0.193591     -0.040480     -0.704300
O       9.93579     13.49749     12.64844        -1.419279     -0.922346     -1.106209
O       9.83257      1.75889      4.27598         0.042394      1.284892      1.135877
O       9.70597     13.36205      4.29846         0.071206      0.688365      0.088043
O       9.70859      1.89941      8.33340        -0.014825     -0.559737      0.916508
O       9.51754     13.47824      8.62241         0.087153      0.298281      0.233462
O       9.98761      5.67372      0.02344        -1.584545      1.075089      2.891955
O       9.48489      5.99166     12.75060         0.723614     -1.819575     -0.812141
O       9.83967      5.58262      4.46844        -0.307876     -0.280272      0.243600
O       9.77604      5.86015      8.81657         0.055081      0.385221     -0.079814
O       9.75580      9.33611     16.61138        -0.377149      0.060202      3.477583
O       9.53854      9.77989     12.59036         0.427735      0.274142      0.411985
O       9.70851      9.73180      4.31136         0.352665     -0.420982      1.548852
O       9.51211      9.65827      8.40834         0.325779     -0.204350      2.741561
O       4.12586      1.88876      2.70710        -0.329929      0.646372     -1.865120
O       3.87813      1.99663     14.77397         1.484600     -0.391159      0.871398
O       3.94576     13.58334      2.57262         0.812308     -0.104034     -0.497238
O       3.74288     14.06026     14.80820         0.822576     -1.007774     -0.558246
O      15.55778      1.85645      2.63685         0.713918      0.409458     -1.118261
O       0.02542      2.22256     14.93270        -0.565221     -0.446731     -0.150594
O      15.59228     13.89919      2.65852        -0.160041     -1.511238     -0.914387
O      15.41370     13.69450     15.01598         0.992483      0.272638     -1.278632
O       3.82329      1.78344      6.44826         1.399842     -0.262576      0.517333
O       3.76476     13.48516      6.69285         1.058889      0.344246     -0.919325
O       0.06175      2.17269      6.08370        -0.878248     -0.155905      1.363154
O      15.57315     13.61955      6.59567        -3.058373     -0.665793     -0.114366
O       3.70297      1.91752     10.52296         0.536871     -0.539085      0.511157
O       3.82187     13.52057     10.37030         1.181352      0.652042      0.046472
O      15.44440      1.77746     10.48090        -1.114032     -0.181551      0.724466
O      15.38143     13.84683     10.24285        -1.215545     -0.822483      0.245409
O       3.94090      5.73017      2.55740         2.096121      1.056274     -1.118231
O       3.87037      5.95852     14.98452         0.634173     -0.002231     -0.464131
O       0.14664      5.98275      2.50337        -0.794195     -1.226200     -0.375416
O       0.12742      5.89218     15.07287        -1.259690     -0.083954     -0.295578
O       4.03892      6.10148      6.52531        -2.736190     -0.377157      0.278502
O       0.02054      5.31048      6.50410         0.722714      1.270317      0.734311
O       3.84851      5.93978     10.82814        -0.418040     -0.863092      0.306247
O      15.59105      5.89669     10.84881         0.015724     -0.220757      0.005847
O       3.85981      9.96563      2.29715        -0.134420     -0.392434     -0.412282
O       3.83866      9.90435     15.08298         1.779433     -0.061777     -0.389715
O       0.17619      9.68966      2.78192        -2.037004      0.272277     -1.829858
O       0.01868      9.95383     14.59589        -0.233051     -0.068135      0.457608
O       3.80055      9.59353      6.48016         0.984239     -0.033090      0.016338
O      15.44558      9.80817      6.34883         0.607846     -0.241389      1.008311
O       3.83971      9.60933     10.55127         0.668362      0.660114      0.495943
O      15.58527      9.67263     10.89794        -0.359453     -0.613590     -0.629994
O       7.96530      1.68722      2.07087        -0.508362      0.233945      0.508058
O       7.74692      1.63911     14.85103         0.977718      1.760943     -0.542444
O       7.88170     13.71631      2.19588         0.341373     -0.895367      0.005191
O       7.90671     13.54176     14.81841         0.505328      0.729459     -0.751920
O       7.69471      2.06999      6.32871         1.308851     -0.699647      0.437513
O       7.64886     13.60012      6.38633         0.465469     -0.335400      0.273105
O       7.93140      1.81412     10.70700        -3.500502      0.193978      0.280110
O       7.62823     13.78453     10.74584         0.405457     -0.132819     -0.492884
O       7.80733      5.82556      2.34742        -0.136542      0.199920     -1.265858
O       7.87392      5.59149     14.91723        -0.545082      0.659069     -0.722464
O       7.71654      5.91197      6.34141        -0.594090     -1.731452      1.088461
O       7.65768      5.90666     11.01127         0.993234     -0.667789     -0.554536
O       7.78945      9.83351      2.69960        -1.084057     -0.668859     -1.944646
O       7.76355      9.59465     14.95829        -0.601324      0.596540     -1.032852
O       7.86888      9.59990      6.53869        -2.458785      0.404354     -0.986671
O       7.68551      9.45609     10.71598        -0.531390      1.119930     -0.557656
O      11.67687      1.68467      2.15282         0.488211      1.128870      0.086739
O      11.76464      1.75548     14.97686         0.158053      1.447508     -0.906973
O      11.74730     13.21168      2.18849        -1.261669      0.574220      0.065193
O      11.65674     13.35129     14.74754         0.011661      0.569424      0.305766
O      11.69821      1.79005      6.34089        -2.350788      1.031017     -0.080746
O      11.41217     13.47624      6.36417         2.158058      0.524722      0.047079
O      11.48485      2.00125     10.61769         1.561645      0.242988     -0.175192
O      11.51633     13.55548     10.61880         0.372281     -1.375861      0.028656
O      11.64260      5.79084      2.38823         0.592079      1.111608     -0.125505
O      11.77439      5.93605     15.11671         1.669380     -0.018352     -1.545485
O      11.64795      5.95509      6.42367         0.344809     -1.236637      0.587057
O      11.49983      5.53727     10.97414         1.282280      0.632512     -0.288801
O      11.31470      9.36533      2.11143         3.055713      0.659926      0.548757
O      11.68952      9.54997     14.88135         1.418041      0.676634     -0.524289
O      11.56066      9.61498      6.70080         0.746758     -0.028891     -1.136546
O      11.63337      9.87284     10.61493        -1.134389     -0.724886     -0.191944
O       2.19632      4.05143      2.55964        -1.562289     -1.745487     -0.929068
O       2.04066      3.98227     15.15351        -0.353347     -1.137831      0.222168
O       2.05992     15.55285      2.52958        -0.207834      2.116076      0.155030
O       1.86655      0.15628     14.80001        -0.862051     -2.425256      0.503551
O      13.55001      3.82141      2.13182         0.624036      0.441955      0.101756
O      13.67173      3.95112     15.10052         0.487770     -1.092626     -0.399289
O      13.52758     15.39342      2.48914        -0.578500      0.588917     -0.993088
O      13.68910      0.13192     14.75787         0.183729     -1.841859      0.061873
O       2.29066      3.77771      6.54341        -0.630374      1.524528      0.283974
O       1.64338      0.04116      6.44817         0.318246     -0.570802      0.366767
O      13.56083      3.84504      6.56298        -0.624588      0.030715     -0.112728
O      13.51179      0.02185      6.44227         0.409688     -0.456522      0.307910
O       1.79487      3.77350     10.55024        -0.439614      1.118824      1.768759
O       1.88356     15.51790     10.57395         0.296724      0.695440      0.122378
O      13.78485      3.88243     10.90050        -0.301900     -2.921322     -0.038556
O      13.03927     15.52244     10.48942         2.351633      0.667704     -0.106558
O       2.18197      8.01328      2.66842        -0.761829     -1.178353     -1.962526
O       2.04694      8.07111     14.86457        -0.536659     -2.911077      0.736481
O      14.10453      7.85205      2.35641        -1.846506      0.536360     -0.200484
O      13.73493      7.98328     14.74019         0.735231     -1.422287      0.681790
O       1.73366      7.67189      6.82115        -0.653283      0.388305      0.004477
O      13.82896      7.65929      6.51891         0.010214      0.793296      0.907235
O       1.89476      7.67339     11.09431        -0.415737      1.204241     -1.578047
O      13.33427      7.65307     10.95065         1.008652      0.029540     -1.496513
O       1.75637     11.68608      2.71762         2.131665     -0.434686     -2.754742
O       1.89063     11.95416     14.77372         0.085960     -0.985223      0.591756
O      13.73490     11.66378      2.51646         0.600219     -1.966327     -0.524718
O      13.65849     11.64579     14.72303        -0.192900      0.659088     -0.611806
O       1.86679     11.51064      6.66774         0.032911     -0.288028     -0.332924
O      13.47579     11.62462      6.62223         0.480727     -0.242427     -0.775204
O       1.79486     11.80648     10.68726        -0.393478     -1.906228     -0.052820
O      13.58076     11.58860     10.60666         0.430948      0.964612      0.400501
O       6.23613      3.80345      2.38380        -1.544197      0.584381     -0.835634
O       5.77161      3.83914     14.91255         0.754918     -1.334575      0.781876
O       5.81543      0.02198      2.38378         0.455213     -1.011924     -0.905055
O       5.90273      0.07896     14.80153        -0.331919     -0.221794      0.082320
O       5.53598      3.99561      6.49608         1.195222     -1.049210     -0.269288
O       5.89478     15.50733      6.45362        -0.386609      1.258864      0.396516
O       5.71127      3.67956     10.69212         0.801236      0.610082     -0.303929
O       5.67514     15.58319     10.66840        -0.492885      1.942059     -0.308680
O       5.78679      7.97318      2.24284         0.228740     -3.282129      0.394898
O       5.94580      7.68158     14.71045        -0.600130      0.367129     -0.047618
O       6.00565      7.78950      6.24175        -0.696821      0.982061      0.612069
O       5.73938      7.72253     10.73767        -0.068015      0.989738      0.201641
O       5.92121     11.71626      2.46454         0.141534      0.654193     -0.397728
O       6.05207     11.66942     14.52896        -0.870528     -0.027159      0.412875
O       5.69491     11.58792      6.37284         0.699947      0.114212      0.207462
O       5.74088     11.73675     10.76334         1.115740     -0.952862     -1.211732
O       9.79918      3.87450      2.13707         0.700022     -0.951918     -1.399988
O       9.94998      3.85018     14.73461        -0.419606     -1.741679     -0.050989
O       9.85301     15.36520      2.38032         1.186034      1.639847     -0.992346
O       9.96930     15.49421     14.49608        -0.979392     -0.128354     -0.182999
O       9.41479      3.82172      6.86425         2.393887      0.223985     -1.831067
O       9.68344     15.54895      6.53840        -0.624558      1.006413     -0.766638
O       9.59713      3.76383     10.62192        -0.448224      1.441330      0.034570
O       9.60922     15.60125     10.61888         0.854515     -0.020632      0.351996
O       9.34435      7.72346      2.33093         1.289462     -0.211803     -0.489579
O       9.86780      7.71838     14.48680        -0.713719      0.596391      0.781935
O       9.60282      7.54085      6.37594         0.168558      2.347440     -0.447673
O       9.76768      7.81102     11.02995         0.384019     -0.986584     -1.590956
O       9.68763     11.40479      2.10735         0.486189      6.321926      0.165440
O       9.91324     11.46503     14.83946        -0.991454      2.080389     -0.457947
O       9.51631     11.67876      6.46347         0.274042     -0.955099      0.075086
O       9.40252     11.66257     10.56354         0.458274     -1.717277      0.655080
