  # total energy = -7883.24750783 
CRSYTAL
PRIMVEC
    15.464    0.0000000000000000    0.0000000000000000
     0.0000000000000000   15.464    0.0000000000000000
     0.0000000000000000    0.0000000000000000   17.350608
PRESSURE
-1.24438 -1.22448 -0.667331 0.063755 0.133535 0.075276
PRIMCOORD
320 1
Pb       3.84885      3.69288      4.35398         0.338342      0.182223     -0.604043
Pb       3.86166      3.89212     17.20160        -0.149254      0.003630      0.372737
Pb       3.81027     15.37476      4.31140         0.059873     -0.119152     -0.411948
Pb       3.85328     15.41500     17.24260        -0.417510      0.457521     -0.127573
Pb       0.04012      3.86011      4.35591        -0.379644     -0.110319     -0.795822
Pb      15.33426      3.74209      0.06089         0.300806      0.155081     -0.696663
Pb       0.02074     15.44101      4.25921         0.033448      0.195311     -0.722385
Pb      15.35578     15.37334     17.25779         0.099693      0.624920     -0.165147
Pb       3.77940      3.85512      8.55344         0.216565     -0.266806     -0.274176
Pb       3.85734     15.40385      8.78309        -0.182739      0.108041     -0.680358
Pb      15.37606      3.86261      8.48960         0.874758     -0.067495      0.270530
Pb       0.08043      0.09876      8.68714        -0.350907     -0.232385     -0.446251
Pb       3.73029      3.90153     12.96912        -0.127086     -0.162388      0.063152
Pb       3.79160     15.41172     12.95993        -0.279299      0.060569      0.057484
Pb      15.27175      3.82572     12.95761         0.183227      0.430932     -0.287683
Pb      15.39914     15.44664     12.96243         0.102720     -0.252494      0.223887
Pb       3.88135      7.61576      4.20602         0.227385      0.189127     -0.321132
Pb       3.77683      7.64584      0.18462        -0.083135      0.134348     -0.875181
Pb       0.01641      7.74730      4.25029        -0.246359      0.294436      0.086356
Pb      15.46340      7.74972      0.17824         0.209430     -0.178865     -1.176771
Pb       3.79254      7.64837      8.67256         0.015893      0.094747     -0.691818
Pb       0.02604      7.83419      8.58720        -0.053386     -0.626656     -0.193670
Pb       3.89277      7.72938     13.01698         0.036745     -0.072021     -0.122313
Pb      15.40639      7.71811     13.00532        -0.386293     -0.194911     -0.411008
Pb       3.97362     11.54044      4.40586        -0.004869      0.450421     -0.534521
Pb       3.90110     11.64446     17.31181         0.031638     -0.240053     -0.102355
Pb       0.05047     11.58592      4.34629        -0.157380     -0.005013     -0.294726
Pb       0.04396     11.60707      0.02256         0.083645      0.033120     -0.522451
Pb       3.99449     11.53140      8.76922        -0.351094      0.066915     -0.922799
Pb      15.45543     11.62956      8.59427         0.503977      0.090332     -0.062558
Pb       3.80720     11.64743     13.00796        -0.460403      0.003553     -0.493293
Pb      15.38818     11.42764     12.91584         0.124373      0.434503     -0.593330
Pb       7.62384      3.79641      4.34500         0.274269      0.200174     -0.140735
Pb       7.67469      3.88677     17.25958        -0.149713     -0.283375     -0.184702
Pb       7.80233     15.34724      4.33781         0.021482      0.176362     -0.382801
Pb       7.63128     15.38382     17.24086         0.417895      0.049224     -0.449472
Pb       7.57494      3.84736      8.59068         0.165242      0.077129     -0.618590
Pb       7.71879     15.45951      8.71036         0.242980      0.017429     -0.422695
Pb       7.65411      3.91104     12.94086        -0.327285     -0.333200      0.160697
Pb       7.71025      0.09955     12.97539        -0.393141     -0.059365     -0.215807
Pb       7.77602      7.70039      4.23829        -0.149273     -0.301512     -0.415626
Pb       7.78814      7.81592      0.05415        -0.303991     -0.213877     -0.469670
Pb       7.57142      7.63077      8.60220         0.440953      0.014876     -0.099862
Pb       7.76796      7.80268     13.04780        -0.675331      0.024556     -0.440816
Pb       7.80132     11.56947      4.40687        -0.100961     -0.043824     -0.626600
Pb       7.74603     11.58569     17.21598         0.048202      0.224449      0.175793
Pb       7.83114     11.51973      8.67321        -0.157063      0.402410     -0.485744
Pb       7.61645     11.56458     12.88937         0.351395      0.164658     -0.309032
Pb      11.39810      3.89929      4.43166         0.439286     -0.276316     -0.615173
Pb      11.51900      3.79866      0.01442         0.378007      0.207803     -0.405918
Pb      11.64382      0.01128      4.30297        -0.023436      0.101245     -0.555530
Pb      11.54321     15.34428     17.29759         0.046243      0.109734     -0.507137
Pb      11.75283      3.87101      8.70109        -0.566147      0.107033     -0.377591
Pb      11.65135     15.45148      8.71379        -0.294777      0.245475     -0.332637
Pb      11.53778      3.82534     12.94198         0.268101      0.335368     -0.339490
Pb      11.50865      0.01609     12.94382         0.249898      0.493931      0.603114
Pb      11.62923      7.68777      4.22920         0.235561     -0.072434     -0.176824
Pb      11.61649      7.65761      0.01082         0.108846      0.207722     -0.513505
Pb      11.48553      7.75930      8.61545         0.340355     -0.177137      0.030923
Pb      11.57690      7.61245     13.07076         0.671460      0.256497     -0.754064
Pb      11.64465     11.51367      4.40311         0.308804      0.156222     -0.549312
Pb      11.56944     11.58313     17.27563        -0.366832     -0.048637     -0.060553
Pb      11.71407     11.62936      8.59938        -0.646751     -0.052552     -0.027130
Pb      11.59426     11.53413     12.84410         0.267435     -0.579003      0.316068
Ti       2.00565      1.95376      2.31085        -0.648353     -0.963718     -0.435910
Ti       1.91722      2.00054     15.31042        -0.511229     -0.940289      0.244253
Ti       1.94185     13.56588      2.27764         0.123353      0.093833      0.750593
Ti       1.85339     13.53403     15.37052         0.489352      0.351884     -1.879337
Ti      13.48329      1.97676      2.28095        -0.049254     -0.186674      0.658323
Ti      13.41236      1.96986     15.30236         1.340135     -0.581938      0.141844
Ti      13.53841     13.48613      2.30402        -0.673183      0.265970     -0.184182
Ti      13.45349     13.54400     15.19991        -0.121573      0.745104      0.475190
Ti       1.98644      1.79444      6.53553        -0.113316      1.178529      2.455084
Ti       1.95524     13.56179      6.65644        -0.372473     -1.135462     -0.705081
Ti      13.54024      1.89872      6.59587         0.074654      0.075291      0.163449
Ti      13.49240     13.55160      6.67899         0.653945     -0.495829     -0.347959
Ti       1.79174      1.94550     10.94243         0.532272      0.232920      0.256892
Ti       1.82720     13.52509     10.96271        -0.030744     -0.528047      0.325489
Ti      13.49525      1.88126     10.89955        -0.263079      0.808866      0.642176
Ti      13.42611     13.59645     10.99777         2.138812     -1.029429      0.080604
Ti       1.90237      5.79280      2.33666         0.952489     -0.432451     -1.209586
Ti       1.89943      5.80136     15.34347        -0.209961      0.474417      0.426441
Ti      13.49763      5.75294      2.23752        -0.229362     -0.128469      0.347538
Ti      13.52934      5.82144     15.28784         0.452372     -0.226127      1.262643
Ti       1.93675      5.78512      6.57840        -0.377191     -0.062606      0.178714
Ti      13.53465      5.80678      6.63796         0.442799      0.397368     -0.002862
Ti       1.91786      5.78279     10.99607        -1.541616      0.204157     -0.297176
Ti      13.44333      5.81256     10.92238         0.678604     -0.022577      1.352422
Ti       1.98712      9.77347      2.37909        -0.006291     -0.760089      0.393187
Ti       1.91501      9.66643     15.34490         0.224530     -0.457757      0.564223
Ti      13.55370      9.67173      2.20282         0.077572     -0.313603      1.024678
Ti      13.53374      9.74356     15.32337        -0.459751     -1.771085     -1.356357
Ti       1.96111      9.68359      6.60657         0.128074     -0.203115      0.177681
Ti      13.55275      9.64404      6.71510         0.002927     -0.676496     -1.105950
Ti       1.93525      9.60002     10.85266        -0.502073      0.598506      1.964717
Ti      13.53463      9.64353     10.79916         0.339536     -0.635122      1.685820
Ti       5.86587      1.78945      2.26608        -1.464573      0.972693      1.111945
Ti       5.76545      1.88140     15.27098         0.175858      0.629405     -0.733620
Ti       5.86866     13.52530      2.33068        -0.751483     -0.782678      0.543413
Ti       5.72045     13.48598     15.19187         0.415492      0.581744      0.718626
Ti       5.83623      1.86397      6.56576        -0.594392      0.854970      0.238298
Ti       5.74497     13.57719      6.64099         0.312579     -1.130709     -0.233535
Ti       5.65663      1.99136     10.97956         0.163312     -0.340302     -0.598353
Ti       5.72531     13.53707     10.91545         0.587173      0.180116      1.424468
Ti       5.80713      5.67530      2.29460        -0.152108      0.111564      1.287676
Ti       5.84378      5.84613     15.39927        -0.929102      0.094381      0.289565
Ti       5.74698      5.85459      6.49923         0.396487     -1.995164      1.696977
Ti       5.67552      5.79499     10.93347         0.558446      0.789392      1.579125
Ti       5.80707      9.72025      2.25933         0.189416     -0.582660      0.214478
Ti       5.74930      9.64466     15.34402        -0.361836     -0.317974      0.383076
Ti       5.83307      9.61601      6.61326        -0.827876      0.968125      1.533315
Ti       5.78364      9.70825     10.94306        -0.075099     -1.414629      0.500688
Ti       9.59329      1.87427      2.25140         1.175712     -0.131633      0.511142
Ti       9.64826      1.96170     15.37081        -0.511967     -0.998812     -0.605002
Ti       9.69389     13.45983      2.29896         0.077417      0.537077      0.465244
Ti       9.56072     13.54154     15.13441         0.766287      0.421778      0.821556
Ti       9.70416      1.95997      6.73679         0.011123      0.592733     -0.029748
Ti       9.64871     13.60161      6.65787        -0.285418     -0.412147      0.737475
Ti       9.60479      2.03026     10.97505         0.392712     -0.795448     -0.145829
Ti       9.71302     13.61362     11.12412        -1.606109     -0.795335     -0.723268
Ti       9.61506      5.69745      2.27320         0.225430      0.966898      1.441221
Ti       9.66377      5.82077     15.33602         0.700802     -0.211528      1.201401
Ti       9.75570      5.80466      6.66434        -1.379120     -0.470691     -0.035007
Ti       9.51879      5.84358     11.00915         1.252291     -0.167134     -0.363843
Ti       9.70645      9.68018      2.39041        -0.158653     -0.117183     -0.415626
Ti       9.62445      9.64382     15.33093         0.670420      0.591911     -0.657324
Ti       9.66958      9.63293      6.64123         0.110374      0.220707     -0.046502
Ti       9.70154      9.66114     10.94903        -0.136942      0.131844      1.026444
O       1.98953      1.82813      0.55498         0.014123      0.258175     -0.470096
O       1.97797      1.98752     13.53934        -0.160018      0.170019      0.142877
O       1.89161     13.61778      0.51520        -0.086144     -0.441530     -1.126645
O       1.92329     13.49710     13.55680         0.144545     -0.240233      0.112325
O      13.53275      1.99547      0.51789        -0.025267     -0.099174     -0.316876
O      13.58450      1.85235     13.53743        -0.540715      0.208192     -0.311998
O      13.46327     13.54236      0.53304         0.247444     -0.221209      0.045921
O      13.55389     13.65569     13.44644        -0.277374     -0.480581      0.061326
O       2.02562      1.76290      4.84388        -0.527590      0.271930     -2.126271
O       1.84687     13.58681      4.83848         0.110569     -0.222121      1.087582
O      13.43474      1.86079      4.85282         0.294396      0.163052     -0.462841
O      13.44436     13.44437      4.91616         0.224091      0.147260     -0.313740
O       1.76357      1.85825      9.18245         0.391288     -0.107900     -0.137879
O       2.05912     13.50882      9.20315        -0.363569      0.618015     -0.251013
O      13.59769      1.85464      9.15119        -0.361270      0.091116     -0.948809
O      13.49714     13.56358      9.22541        -0.453451     -0.188549     -0.471435
O       2.15506      5.83399      0.51406        -1.163925     -0.152487      1.342026
O       2.01834      5.78990     13.57095        -0.137253     -0.012260     -0.089698
O      13.54618      5.76850      0.47145        -0.121821      0.093367      0.081109
O      13.55231      5.77310     13.53321        -0.475262     -0.112087     -0.686340
O       1.85492      5.80241      4.81049         0.145712     -0.215058     -0.428913
O      13.45217      5.78492      4.90774         0.296267      0.036430     -0.996515
O       1.97105      5.87003      9.19465         0.054466     -0.210364      0.613453
O      13.47972      5.67777      9.18610        -0.006646      0.217948     -1.233007
O       1.93354      9.64371      0.64444        -0.073460      0.296317     -1.156937
O       1.93643      9.75479     13.60544        -0.021101     -0.064130     -0.636766
O      13.49574      9.58093      0.43572         0.300902      0.309399     -0.111473
O      13.51909      9.57866     13.45837        -0.024706      0.808123      1.878552
O       1.81847      9.65850      4.84115         0.287217      0.252288     -0.731600
O      13.55220      9.63551      4.92460        -0.031397      0.387676     -0.014977
O       1.81282      9.60853      9.14017         0.468943     -0.383926     -0.986782
O      13.56583      9.53225      9.04549        -0.192960      0.363580     -0.542609
O       5.80333      1.83153      0.53733         0.061693      0.048194     -1.028351
O       5.91141      1.89869     13.48962        -0.638374      0.313169     -0.368381
O       5.86407     13.50887      0.59559         0.052415     -0.026731     -1.019213
O       5.74011     13.45019     13.45556        -0.338402     -0.222771     -0.727926
O       5.78135      2.00556      4.79797         0.401292     -0.501339      0.550975
O       5.71160     13.47623      4.85991         0.526248      0.067354     -0.268326
O       5.82166      1.98020      9.17480        -0.169779     -0.398473      0.767288
O       5.62971     13.52557      9.16611         0.095066      0.341685     -0.844593
O       5.93372      5.62928      0.54360        -0.166472      0.376374     -0.768272
O       5.68699      5.91352     13.68875         0.235643     -0.066359     -1.233232
O       5.77203      5.84969      4.78362        -0.009866     -0.324338     -1.058436
O       5.54807      5.81399      9.22614         0.426689      0.052771     -1.328884
O       5.74629      9.74565      0.51405         0.350316     -0.108725     -0.688225
O       5.81717      9.67380     13.57484        -0.275801      0.119054     -0.430442
O       5.83448      9.74074      4.90215         0.171511     -0.250022     -1.075683
O       5.76686      9.60589      9.20358         0.070240     -0.019861     -1.180011
O       9.69524      1.80916      0.51515        -0.415215      0.320470     -0.598120
O       9.65418      1.97817     13.58615         0.098071      0.009891     -0.176312
O       9.47038     13.48657      0.57988         0.493807      0.039852     -1.107757
O       9.60144     13.65770     13.37784        -0.026375     -0.475986     -0.201116
O       9.74750      2.05527      4.98679        -0.134803     -0.400062     -0.767854
O       9.69052     13.65037      4.92144        -0.424907     -0.418274     -0.651802
O       9.71528      1.88466      9.22261        -0.340789      0.235020     -0.291905
O       9.76329     13.64210      9.37616        -0.188791      0.084050     -1.251852
O       9.62401      5.80776      0.55023        -0.163743     -0.218003     -1.058298
O       9.63316      5.78928     13.60862         0.268404     -0.068316     -1.266275
O       9.74325      5.73269      4.89917        -0.066902      0.326580     -0.170978
O       9.74788      5.89721      9.26676        -0.478451      0.006407     -0.378948
O       9.77763      9.77556      0.63876        -0.467377     -0.435092     -0.720051
O       9.60111      9.74489     13.56526         0.147197     -0.494479     -0.219292
O       9.64987      9.66538      4.86112        -0.172482      0.130193     -0.507010
O       9.73868      9.52007      9.22941        -0.367094      0.181944     -0.528712
O       3.85254      1.83042      2.76884         0.884338      0.190822     -0.034287
O       3.86424      1.89819     15.72218        -0.285757      0.300787     -0.125380
O       3.77893     13.54638      2.68332         1.123000     -0.308436      0.036411
O       3.85736     13.53359     15.62805         0.184809     -0.314301      0.376253
O       0.10296      1.96891      2.70601        -1.378330     -0.124695      0.388056
O      15.40615      1.99268     15.73617         0.612235     -0.299487      0.021110
O      15.40863     13.55865      2.60704        -0.080528     -0.227458      0.458019
O      15.42210     13.55949     15.59925        -0.526522     -0.492423      0.628600
O       3.85266      1.76273      6.85221         0.941769      0.201883      0.720454
O       3.88706     13.57933      6.97410        -0.625287      0.165564      0.431837
O       0.02024      1.88317      6.98013        -0.259319     -0.273775     -0.157880
O       0.03060     13.44436      7.06690        -0.363582      0.219000     -0.115054
O       3.75389      2.08817     11.21932         0.748328     -0.569875      0.284360
O       3.79395     13.45343     11.36613         0.084828      0.264609      0.266885
O      15.35633      1.97240     11.26367         0.891686     -0.237029      0.593410
O      15.36667     13.54919     11.41151         0.808670      0.034197     -0.284548
O       3.87703      5.68592      2.66604         0.101158      0.273217      0.328900
O       3.81491      5.91244     15.77432         0.802980     -0.419778      0.092919
O      15.44069      5.76943      2.59986         0.601651      0.007784      0.298191
O      15.41948      5.64513     15.74216         0.296016      0.186682     -0.061091
O       3.85028      5.61099      6.95800        -0.175120      1.220203     -0.054310
O       0.00536      5.72271      6.98550         0.556578      0.106986      0.076709
O       3.80692      5.93556     11.36947        -0.257921     -0.590599      0.328682
O      15.41714      5.77770     11.45493         0.125753     -0.150569     -0.314453
O       3.94756      9.76078      2.65555        -1.360202     -0.751561      0.658911
O       3.84577      9.61949     15.76052        -0.268677      0.384035     -0.153581
O       0.02827      9.64526      2.59928        -0.420542     -0.024339      0.312525
O      15.43558      9.61379     15.68900        -0.244337      1.026120      0.427737
O       3.85559      9.53637      6.97552         0.585061      0.249051      0.164598
O       0.01325      9.63036      6.98634         0.244192      0.226784      0.376539
O       3.86106      9.69657     11.21089        -1.125506     -0.221707      0.378762
O      15.37409      9.56896     11.23760         0.885357      0.536359      0.348075
O       7.69729      1.90089      2.65417         1.089941     -0.513220      0.320695
O       7.65339      1.90224     15.65420         0.830284      0.139944      0.529291
O       7.78644     13.55325      2.72838        -1.061098     -0.254999      0.677165
O       7.68888     13.55516     15.53640        -0.173616     -0.069894      0.343564
O       7.78712      1.89944      7.03071        -0.797258      0.173191      0.282148
O       7.69380     13.51827      7.09449         0.756392     -0.053834      0.095940
O       7.72766      2.01802     11.33503        -0.244865     -0.281726      0.081313
O       7.59229     13.54562     11.32553         0.494616      0.260358     -0.044053
O       7.70428      5.80343      2.80509         0.218945     -0.146383     -0.283238
O       7.82724      5.89525     15.71346        -1.247363     -0.580581      0.361028
O       7.66804      5.85676      7.02086         0.388108     -0.428435      0.119656
O       7.64907      5.76023     11.35101         0.259393      0.170988     -0.077429
O       7.72330      9.70901      2.56168         0.192722     -0.401296      0.807326
O       7.68736      9.61790     15.65304         0.701511      0.290663      0.675614
O       7.72433      9.62752      7.08121        -0.272974     -0.187302      0.083909
O       7.66747      9.68950     11.30061         1.287024     -0.284068      0.324407
O      11.56811      2.07541      2.61114        -0.514262     -0.472945      0.282528
O      11.57708      1.76448     15.74110        -0.788949      0.741100      0.051943
O      11.58376     13.40666      2.67225         0.269237      0.393973      0.284608
O      11.53280     13.63753     15.49896        -0.143634     -0.469547      0.380632
O      11.65620      1.92650      7.03612        -0.221844      0.175523      0.456997
O      11.55801     13.41612      6.97581         0.171922      0.235065      0.590078
O      11.59269      1.77993     11.27884        -0.325652      0.709348      0.352885
O      11.59736     13.43584     11.40724        -0.227112      0.704567      0.187565
O      11.60911      5.86057      2.64263        -0.347105     -0.590877     -0.013293
O      11.59363      5.76184     15.85251        -0.283114      0.341460     -0.495976
O      11.62853      5.68115      6.97712        -0.145295      0.391013      0.578200
O      11.56143      5.79670     11.35340        -0.140961     -0.005695      0.554924
O      11.63767      9.71141      2.63786        -0.205199     -0.338105      0.577838
O      11.59443      9.64165     15.73938        -0.278759     -0.088597     -0.060974
O      11.56206      9.65358      6.96928         0.377293      0.059762      0.401697
O      11.68420      9.63198     11.21313        -1.987579      0.297059      0.432668
O       2.01584      3.82007      2.68041        -0.436245      0.816264      0.401113
O       1.98896      3.87259     15.73642         0.016712     -0.252536     -0.093122
O       1.91445     15.39768      2.69278        -0.271342      0.731414      0.422576
O       1.96352     15.42721     15.57566        -0.258804      0.731689      0.650294
O      13.51729      3.87077      2.61638         0.449885      0.280404      0.352798
O      13.40799      3.81711     15.59622        -0.172339      0.151835      0.477888
O      13.43973      0.04997      2.62283         0.133482     -0.639883      0.406083
O      13.45845     15.44330     15.68951         0.520980     -0.406228      0.311850
O       2.03974      3.76678      6.95706        -0.850721      0.168261     -0.212115
O       1.91528     15.40377      7.02441        -0.154744     -0.007526      0.442637
O      13.64383      3.85020      6.92236        -0.656086     -0.673216      0.427166
O      13.49317     15.40132      6.98361         0.044271      0.237128      0.167101
O       1.87287      3.86239     11.36562         0.093104      0.521374      0.024995
O       1.90412      0.03154     11.37826         0.007307     -0.041118     -0.183360
O      13.44957      3.83008     11.26203        -0.215489     -0.235457      0.468745
O      13.58606     15.45179     11.29332        -0.611985      0.161384      0.157922
O       2.02196      7.71883      2.61454        -0.175119     -0.278148      0.472856
O       1.80463      7.71680     15.79011         0.198005      0.360729     -0.027737
O      13.56534      7.73347      2.65784        -0.113936      0.055836     -0.051482
O      13.56583      7.68664     15.54165        -0.381016      0.502159      0.718464
O       1.92936      7.70052      6.89295         0.037458     -0.486085      0.572992
O      13.59357      7.71495      6.93660        -0.330475     -0.341055      0.559374
O       1.75288      7.74265     11.43088         1.108784      0.176322     -0.512270
O      13.47991      7.68703     11.33854         0.022283      0.327130     -0.184015
O       1.89781     11.61977      2.69905        -0.191481      0.105467      0.133947
O       1.95278     11.63539     15.74431        -0.373218     -0.875500      0.537985
O      13.52362     11.53809      2.66296         0.329831      0.399528      0.056780
O      13.33458     11.62002     15.73503         1.169052      0.111551     -0.603246
O       1.98964     11.54386      7.04120        -0.036674      0.581606     -0.028300
O      13.55804     11.54327      7.10027        -0.261164      0.688432      0.076595
O       1.78694     11.62540     11.15076         0.166914     -1.059188      0.783608
O      13.53262     11.57592     11.36680        -0.192983     -0.117853     -0.367906
O       5.88793      3.74236      2.72472        -0.492337      0.688599     -0.148301
O       5.79836      3.88200     15.55373         0.108506      0.150992      0.789427
O       5.76650     15.38518      2.62261         0.345858      0.228103      0.582217
O       5.70159      0.00943     15.48656         0.398763     -1.099645      0.743605
O       5.75673      3.83599      7.03962         0.403993     -0.349957     -0.198067
O       5.87630     15.45511      6.89122         0.049560      0.256973      0.605231
O       5.77640      3.90659     11.32359        -0.268699     -0.185482      0.397781
O       5.65397      0.03896     11.35965         0.100347      0.027256     -0.409242
O       5.75308      7.62494      2.68056         0.138866      0.969350     -0.216314
O       5.79480      7.76366     15.74041         0.333596     -0.056849      0.450808
O       5.79001      7.61385      6.98161        -0.430193      2.069656      0.285887
O       5.79218      7.69263     11.40941        -0.026700      0.458294      0.029113
O       5.66559     11.57017      2.66251         0.988765      0.989420      0.523376
O       5.79789     11.64406     15.73053        -0.169493     -0.635976     -0.146842
O       5.71958     11.60222      6.95416         0.255208     -0.722421      0.608574
O       5.78741     11.56831     11.19119        -0.312856      0.792731      0.537881
O       9.52817      3.87627      2.70775         0.426049     -0.998642     -0.092944
O       9.70533      3.83465     15.76463        -0.247732      0.216251      0.015895
O       9.66937     15.42608      2.67307         0.124501      0.774849      0.435446
O       9.60189     15.46203     15.63685        -0.245855     -0.386178      0.269348
O       9.62034      3.93016      7.00963         0.192761     -0.584664      0.650737
O       9.67303      0.02483      6.99578         0.108490     -0.635342      0.516102
O       9.71480      3.90803     11.40779        -0.258831     -0.384760     -0.074198
O       9.65522      0.02701     11.39997        -0.286698      0.539317      0.152802
O       9.67420      7.62621      2.66935        -0.307948      1.452184      0.345297
O       9.65517      7.74287     15.69943         0.242012      0.210180      0.302196
O       9.68841      7.74362      7.00544        -0.042411     -0.511741      0.275408
O       9.64662      7.70080     11.52018        -0.105476      0.903225     -0.249912
O       9.60379     11.60347      2.71217         0.141566     -0.586056      0.740371
O       9.65620     11.62304     15.59507        -0.120211      0.048677      0.376507
O       9.62453     11.52395      7.05221        -0.136978      0.817796      0.218698
O       9.58158     11.63973     11.26087         0.362537     -1.239006      0.465738
