  # total energy = -7841.52749436 
CRSYTAL
PRIMVEC
    15.6080000000000005    0.0000000000000000    0.0000000000000000
     0.0000000000000000   15.6080000000000005    0.0000000000000000
     0.0000000000000000    0.0000000000000000   16.6239999999999988
PRESSURE
3.41556 2.2641 0.449366 -0.095862 0.4476 -0.1378
PRIMCOORD
320 1
Pb       3.48529      3.88793      4.06281         0.907948     -0.668893      0.838680
Pb       3.74979      3.94396      0.22900        -0.205569      0.485057     -0.483414
Pb       3.61445     15.59400      4.14456         0.740656      0.095534     -0.018774
Pb       3.95044     15.51126     16.27365        -0.298861      0.320971      1.554231
Pb      15.38546      3.94669      4.11527         0.015222     -0.016614     -0.178153
Pb       0.11731      3.73530     16.36583        -0.116280      1.354265      1.156230
Pb       0.21996     15.40031      4.24983        -0.554495      0.197816     -0.755648
Pb      15.59644     15.40876      0.06671         1.759100      0.372940      0.488729
Pb       3.93257      3.99150      8.36182        -0.431035     -0.670073     -1.307658
Pb       3.93670     15.53316      7.88879        -0.180153     -0.498312      1.919524
Pb       0.04953      3.94718      8.45687         0.049324      0.140526      0.563346
Pb       0.30991      0.28942      8.70797        -1.354042     -1.381615     -0.791680
Pb       4.17876      3.81748     12.52820        -1.119729      0.079642      0.699825
Pb       3.88335     15.41239     12.44533        -0.213464     -0.129616      0.266127
Pb      15.44354      3.84565     12.36014         1.289102      0.519659      0.162426
Pb       0.06813      0.25341     12.68782        -0.308513     -1.154991     -0.577652
Pb       3.79824      7.53191      4.31098         0.774603      0.003123     -0.093972
Pb       3.82940      7.85769      0.06435         0.063687     -0.370769      0.173174
Pb      15.36567      7.97127      4.38850         0.437425     -0.916529     -0.149742
Pb      15.36173      7.85302      0.26970         0.787240     -0.308240     -1.724782
Pb       3.65072      7.79798      8.04477         1.522211     -1.148399      1.114517
Pb      15.53091      7.59710      8.40045        -0.486675      0.733911     -0.118594
Pb       4.11373      7.96819     12.20720        -0.373238      0.449395      1.833391
Pb      15.56572      7.78780     12.66023        -0.595929      0.849076     -0.649553
Pb       4.19097     11.42525      3.77387        -0.392796      0.947117      1.628708
Pb       4.22013     11.50033     16.34605        -2.007269     -0.270745     -0.288164
Pb      15.33265     11.81944      4.26598         0.790061     -0.067597     -0.091931
Pb      15.59590     11.61430      0.22504         0.683935      0.450170     -0.889355
Pb       4.18581     11.65661      8.44855        -0.478718     -0.269904     -0.894272
Pb       0.05578     11.51431      8.77570        -0.016989     -0.222559     -0.761091
Pb       3.59891     11.62228     12.21520        -0.242168      0.038799      2.170350
Pb       0.03129     11.64209     12.46980         0.194358      0.109316      1.044792
Pb       7.71639      3.88849      4.44585        -1.254808      0.755337     -0.659168
Pb       7.88949      3.80024      0.26879        -1.122302      0.446820     -0.773663
Pb       7.29174      0.11821      4.11142         2.141848     -0.988371      0.247259
Pb       7.92374      0.22024      0.26937        -1.264578     -0.400155     -0.701674
Pb       8.13027      3.86262      8.73519        -0.254259     -0.243497     -0.371649
Pb       7.81153      0.14165      8.35599        -0.056846      0.261132     -0.361188
Pb       7.77487      3.56719     12.70783         0.231292      1.343331     -0.391774
Pb       7.66159     15.46530     12.31610         1.162909     -0.168217      0.572055
Pb       8.01336      7.75196      4.05809        -0.943578     -1.211617      0.382303
Pb       7.99530      7.72921     16.41867        -1.700294     -0.296881     -0.321285
Pb       7.84753      7.55082      8.12205        -0.456764      0.897599      0.487085
Pb       7.75063      7.59611     12.34960         1.001056     -0.242026      0.601897
Pb       7.79664     11.72163      4.34525        -0.080955      1.312583     -1.100788
Pb       7.61213     11.43611      0.01798         1.602300      0.215097     -0.063829
Pb       7.73742     11.87691      8.65098         0.909362      0.050770     -1.038723
Pb       7.39922     11.78422     12.39456         2.129232     -0.322113      0.678687
Pb      11.79816      4.05997      4.10553         0.323017     -0.083508      1.066666
Pb      11.59480      3.79889      0.19540         1.096468      0.084815     -0.759074
Pb      11.40705      0.26068      3.79362         0.577877     -1.371091      1.581057
Pb      11.38016     15.46913     16.44150         1.445565      1.756356      2.028124
Pb      11.57029      3.64078      8.16445         0.776837      0.703537      1.480396
Pb      11.47516     15.48931      8.47773         1.228354      0.792603     -0.139736
Pb      11.76248      4.19858     12.51468        -0.088284     -0.263265      0.273408
Pb      11.83779      0.25753     12.54840        -1.004258     -3.263531      1.518747
Pb      11.92844      8.05758      3.86749        -0.690426     -0.527851      1.250871
Pb      11.21996      7.83054     16.56047         3.514005      0.150783     -0.656334
Pb      11.27155      7.82924      7.98778         1.885556     -0.196997      0.609659
Pb      11.80119      7.93539     12.25382        -0.115677     -0.796927      0.476640
Pb      11.63152     12.04159      4.33077         0.328506     -0.027960     -0.512918
Pb      11.50636     11.85616      0.32481         0.564846     -1.434946     -1.087396
Pb      12.10798     11.52934      8.37695        -1.744827      0.509549      0.286211
Pb      11.79213     11.89912     12.57069         0.277132      0.104516      0.529912
Ti       1.92664      1.91002      1.97300         1.258915     -0.934425      1.219507
Ti       1.90524      1.88432     14.58921         1.338989      0.316827     -0.753040
Ti       2.11573     13.47185      2.27998        -1.984695      1.560147     -1.235663
Ti       2.02417     13.50735     14.74153         0.338887     -1.291647     -1.287666
Ti      13.82291      1.80569      2.10061         0.229113      1.635803      0.922408
Ti      13.66287      1.83858     14.75415        -2.043312      0.646260      0.399486
Ti      13.63260     13.77119      2.17302        -0.132489     -1.087056      5.667997
Ti      13.82036     13.65325     14.91693        -0.773018     -2.170393     -3.250848
Ti       1.65911      1.78345      6.34158         3.486190      1.664967     -1.787572
Ti       2.03288     13.44451      6.27777         0.816889      0.195759     -0.720102
Ti      13.54295      1.70736      6.41048         0.084797      1.399205     -1.146595
Ti      13.81901     13.57810      6.48229        -2.395371      1.706825     -0.707180
Ti       2.24684      1.81810     10.48684        -2.163327      1.021381      0.971027
Ti       1.86967     13.53449     10.23621         1.193259      2.356637     -1.240400
Ti      13.63813      1.85905     10.46708         0.097078     -0.833162     -0.493693
Ti      13.69606     13.68312     10.41608        -0.182464      0.322937      0.400525
Ti       1.79443      5.99425      2.22990         0.896996     -1.469736     -2.394571
Ti       1.93432      6.00836     14.47697         1.292731     -2.301197      1.549934
Ti      13.64761      5.86583      2.02441         0.480273     -1.374703     -0.224384
Ti      13.73558      5.72427     14.71552        -2.880138      0.973205     -0.024782
Ti       1.70026      5.64261      6.49673         2.074068      0.372736      0.542238
Ti      13.50646      5.74676      6.53134        -0.940633      0.726655     -2.067923
Ti       2.21502      5.94750     10.70236        -1.969894     -3.160153     -1.946674
Ti      13.68520      5.71832     10.37817        -0.384364      1.535525     -0.058797
Ti       2.00753      9.71639      2.38042         0.208116     -1.043290     -0.081818
Ti       1.99446      9.64319     14.71539        -0.733308      1.989569     -1.233343
Ti      13.75792      9.73628      2.03625        -2.016605      1.259439      4.152312
Ti      13.67705      9.66238     14.61445         1.105855     -0.338325      0.597228
Ti       2.07292      9.67607      6.32368        -2.123579      0.467996     -1.536095
Ti      13.63275      9.76242      6.31677         0.688712     -2.466772     -0.454376
Ti       1.97866      9.52712     10.35962        -0.820716      3.326608      4.018399
Ti      13.61381      9.73412     10.50456         1.258933     -1.329033      0.358653
Ti       5.86339      1.98621      2.10725        -1.809659      0.570949     -1.274509
Ti       5.68692      2.00186     14.67815         1.479456     -0.350780      0.530102
Ti       5.74681     13.66176      1.87481         1.118466      0.391486      4.139894
Ti       6.12341     13.67681     14.69356        -0.038683      1.039923     -0.320915
Ti       5.76785      1.87091      6.26967        -0.334838      3.337558      0.063842
Ti       5.98899     13.71050      6.24951        -1.030814     -1.317584     -0.885969
Ti       5.86563      1.88721     10.57582        -0.401648      0.073335     -1.258867
Ti       5.80878     13.56811     10.38948        -0.022959      1.653693     -1.313729
Ti       5.71164      5.71832      2.10639         1.476464      1.044798      2.548196
Ti       5.78190      5.92991     14.58739         1.409077     -0.521990      0.590009
Ti       5.78390      5.88469      6.35474        -0.615733     -0.700292      0.151805
Ti       5.79928      5.84362     10.29813         4.432539     -0.729835      0.541929
Ti       6.02445      9.58657      2.11155        -1.986960     -1.560578     -1.234609
Ti       6.08068      9.64046     14.49697        -2.246969     -0.865052      0.239005
Ti       6.01439      9.91211      6.39726        -3.251008     -1.804790      0.889398
Ti       6.00525      9.72608     10.48816        -1.628075      0.351040     -2.404815
Ti       9.77151      1.98723      2.09812        -2.023004      0.644217     -0.194496
Ti       9.62253      1.91325     14.71924         0.601062     -0.020241      0.024759
Ti       9.56538     13.58981      2.05015        -0.943963      0.550497      1.813285
Ti       9.87909     13.65152     14.69135        -0.355721     -1.327790     -3.409367
Ti       9.71009      2.01420      6.04106        -0.908793     -0.664423     -0.456007
Ti       9.80858     13.74066      6.47553         0.218282      0.137987     -1.263630
Ti       9.81164      1.89250     10.77006         0.452215     -0.139554     -0.630862
Ti       9.94662     13.60984     10.43482        -2.475316      0.515404      2.170720
Ti       9.70567      5.83697      2.01867        -0.887915     -0.541797      4.561298
Ti       9.74728      5.67603     14.62803         0.040262      2.193188     -2.119783
Ti       9.60853      5.72390      6.31981         2.690535      0.292097     -1.853996
Ti       9.66894      5.91712     10.62028         1.430998     -0.962244     -0.206952
Ti       9.71039      9.73041      2.07776         2.115428      1.046566      0.152056
Ti       9.90969      9.82685     14.37139         0.274099      0.725368      0.928807
Ti       9.68219     10.04445      6.11366         1.453964     -1.626376      1.383291
Ti       9.72661      9.86655     10.43997         0.951016     -0.762349      2.167529
O       2.06689      1.77194      0.12386        -1.284481      0.892769      0.790770
O       2.02327      1.80113     12.57571        -1.282378      0.027306      2.849217
O       1.98404     13.24577      0.46548         0.327278      0.766602     -0.065369
O       1.87918     13.39807     12.90556         0.053119      1.287643     -0.387765
O      13.62697      1.95694      0.26420         0.917481     -0.968939      1.560940
O      13.54736      1.61618     12.91257         1.935529      1.133499      0.425105
O      13.99213     13.72848      0.54222        -0.465981     -0.297365     -2.768420
O      13.67339     13.79042     13.11280         0.185892     -0.223140     -0.123944
O       1.75912      2.05376      4.41528         0.503215     -1.084652      2.986922
O       2.10417     13.79620      4.35211        -0.829143      0.135086      2.039850
O      13.46433      2.03987      4.51171         0.316069     -0.098419      1.673037
O      13.57891     13.46031      4.56021         0.094591      0.207218      1.062018
O       2.31665      2.19761      8.76115        -0.894832     -0.772066     -0.721884
O       1.96299     13.36122      8.35324        -0.216350     -0.208010      1.384465
O      13.41836      1.81482      8.71815         0.470082      0.437757     -0.496630
O      13.57823     13.72140      8.62811         0.352154     -1.376484     -0.467802
O       2.14535      5.81671      0.35982        -1.186110      0.519910      0.808157
O       2.02779      6.06684     12.67130        -0.141586     -0.663811     -0.399465
O      13.46390      5.83698      0.19915         0.606440      0.001652      0.966725
O      13.94547      5.50856     12.85697        -1.159081      1.000067      0.505294
O       1.92006      5.65593      4.76150        -0.263475      0.401024     -2.396112
O      13.80668      5.79929      4.44940        -0.744660     -0.151093      1.606007
O       1.92326      5.95307      8.68810         0.234146     -0.460780      0.615768
O      13.49941      5.55338      8.49443         0.395148      1.286295      2.705938
O       1.97760      9.40155     16.53203        -0.401195      1.029347      1.681042
O       1.76722      9.91374     12.68335         0.782593     -0.701896      0.046568
O      13.84667      9.65721      0.37131        -0.362086      0.604961     -2.964165
O      13.66620      9.26736     12.85562         0.145471      1.411792     -1.298340
O       2.13037      9.27301      4.25606        -0.019934      1.991664      1.163718
O      13.76162      9.75817      4.38892        -0.540739     -0.586292      1.301795
O       1.91351      9.73596      8.64974        -0.749604      0.835763     -2.732354
O      13.81398      9.69787      8.67809        -0.517932      1.124020     -0.060218
O       5.61482      1.81872      0.24321         0.803984      0.761335      0.395291
O       5.74643      1.83005     12.74241         0.860839      0.097505      1.382100
O       5.64061     13.68056      0.16813         0.894128     -0.548715     -1.578480
O       5.91757     13.40361     12.88496        -0.408871      1.212532     -0.084121
O       5.92854      1.96164      4.44731        -0.478826     -0.432013     -0.288481
O       6.07236     13.63717      4.35203        -0.145444      0.116396      2.286557
O       5.82706      1.79032      8.75145        -0.269706      0.258770      1.103759
O       5.90274     13.56393      8.47617        -0.402188     -0.255701      1.711703
O       5.98668      5.74334      0.43597        -0.109868     -0.095029     -2.477210
O       5.99555      6.07135     12.78588        -0.397336     -0.123895     -0.281020
O       5.98127      5.89733      4.61969        -0.307351     -0.225128     -1.003907
O       5.90163      5.60076      8.57471         0.153096      0.462271     -0.225296
O       6.06134      9.60635      0.26027        -0.235358      0.637154      0.348808
O       5.97052      9.77749     12.63869         0.039977     -0.465587      0.221672
O       5.75072      9.50983      4.66047        -0.072708      0.821555     -1.792086
O       5.81050      9.85827      8.48370         0.667468      0.635478      1.631665
O       9.76037      1.72561      0.23627        -0.142066      0.560210      0.007764
O       9.79102      2.27373     12.86284        -0.359239     -0.874870      0.953388
O       9.86178     13.55882      0.28645        -0.928399      0.142527      0.381507
O      10.11545     13.50446     12.76759        -1.156693      0.150893      2.211307
O       9.77136      2.22823      4.09367        -0.693801     -0.385902      2.346803
O       9.60765     13.51321      4.66542         0.570497      0.025262     -0.598566
O       9.98170      1.80828      8.93471        -1.111931      0.268133      0.443725
O       9.64355     13.93779      8.69477         0.445450      0.235075     -1.125528
O       9.98860      5.79778      0.35986        -0.583462      1.268849     -3.391768
O       9.39790      5.71133     12.72528         0.951495     -0.194143      0.932224
O       9.49773      5.56248      4.49031         0.877651      0.275348      0.453137
O       9.75656      5.67264      8.73948        -0.379693      0.810901     -0.953390
O      10.09171      9.87249      0.28408        -1.751774     -0.028221      0.353185
O       9.90053      9.97264     12.59361        -0.160724     -0.349886      1.602050
O       9.48309      9.95532      4.33270         0.743488     -0.470207      0.739164
O       9.72156      9.74952      8.75500         0.017512     -0.459566     -2.540571
O       3.84947      2.03194      2.21888        -0.697184      0.261725      0.689725
O       3.86315      1.70910     14.86606        -0.113337      0.890959     -1.308708
O       3.91665     13.67710      2.57934         2.792174     -0.277080     -0.724611
O       3.90990     13.58770     14.87342         1.789084      0.804886     -0.115784
O      15.59903      1.75365      2.73520        -0.819692      0.083936     -2.479926
O      15.49980      2.18390     14.66923         2.472199     -1.067089     -0.031791
O       0.18953     13.66801      2.62336        -2.198773      0.468381     -0.257978
O       0.23573     13.68137     15.21225        -1.815219     -0.878720      0.183624
O       3.77764      1.65794      6.57380         1.028976      0.858740     -1.087429
O       3.94975     13.77873      6.27550         0.726836      0.083338      0.620247
O       0.00848      2.11285      7.06933        -0.525693     -0.680649     -1.298247
O      15.51011     13.37442      6.42037         2.746075     -0.318943      0.106319
O       3.90185      1.79409     11.16343         2.322184      0.270946     -1.631689
O       3.82301     13.36190     10.67997         0.376806      1.602954     -0.522877
O       0.03086      1.62604     10.54753        -0.122380      1.138380      0.825166
O      15.58817     13.61233     10.52397        -0.483494      0.765098     -0.064591
O       3.88917      5.67330      2.26516        -0.614611      0.011786      1.221504
O       3.99792      5.81571     14.71072        -1.485020      0.295831      0.020994
O      15.59129      6.02078      2.50928         0.667100     -0.201309     -0.648562
O      15.50533      5.74823     15.05965         2.759078      0.272447     -0.595077
O       3.88598      5.91038      6.64177         0.174639     -0.654831      0.049215
O      15.45781      5.86835      6.79972         0.718707     -0.674317     -0.497594
O       4.16346      6.03374     10.81643        -4.532478     -0.172288      0.195652
O      15.47555      5.82387     10.80262         0.942840     -0.696458     -0.772525
O       3.77732      9.50742      1.75692         0.389781      2.421460      1.888776
O       4.09359      9.65574     14.60362         0.132120      0.111086      0.652836
O      15.59350      9.59540      2.28403         2.339321      0.246241      0.136092
O       0.04405      9.41906     14.77540         0.179330      1.108002      0.214802
O       3.79050      9.65361      6.74093         0.153450      0.519286     -0.835519
O      15.59690      9.62824      6.44480         0.366244      0.337875      0.172118
O       3.83203      9.83047     10.72060        -0.309986     -0.432999     -0.745147
O      15.46872      9.97732     10.92352         1.038741     -0.885767     -1.778489
O       7.77194      1.87509      1.99887        -0.152097      1.462238      0.477369
O       7.80048      2.08866     15.12755         0.045676     -0.332584     -0.936463
O       7.62660     13.65699      2.21502         1.122311     -0.881796     -0.680189
O       8.01443     13.50789     14.77417        -2.958005      0.364472      0.182981
O       7.72417      2.04933      6.57570         2.041411     -0.411818     -0.245939
O       7.96703     13.51331      6.76234        -2.544296      0.191840     -0.315292
O       7.77205      1.92077     10.74804         0.078282     -0.200144      0.412724
O       7.80234     13.70994     10.57670        -0.813195     -1.237085      0.729625
O       7.86811      5.84020      2.59316         0.406710      0.108810     -1.562840
O       7.86922      5.96905     14.87725        -0.624326     -0.152728      0.611251
O       7.83023      5.86706      6.50589        -1.737169     -0.428012      1.121820
O       7.81625      5.87402     10.54594        -2.297644      0.509210      0.126832
O       7.81916      9.67791      2.08193         0.694245     -0.370478      0.973016
O       7.98764      9.61831     14.74805        -0.199177      0.221834      0.159039
O       7.73463     10.18003      6.36572         2.843428     -0.330172      0.617863
O       7.76270      9.78386     10.66629         1.240505      0.379250     -0.146100
O      11.54838      2.03448      2.29845         2.899726     -0.475405     -0.377474
O      11.63913      1.60561     15.09259         0.452001      1.121100     -1.575225
O      11.62927     13.66476      2.54068         0.011077      0.034727     -0.999993
O      11.83509     13.73253     15.16984        -0.555230     -0.637340     -0.643161
O      11.64703      1.92594      6.65940         0.378451     -0.902696     -0.944967
O      11.68565     13.73722      6.84278        -0.109142     -0.012814     -0.869993
O      11.83193      1.68330     10.95560        -1.753915      2.405712     -1.166212
O      11.63589     13.79523     10.74818         2.742058     -0.657948     -0.601135
O      11.86511      5.48352      2.39079        -1.571252      1.506803     -0.353380
O      11.67575      5.96691     14.65219        -0.472467     -1.337681     -0.288369
O      11.50727      5.93519      6.26504         1.462171     -0.114929      1.041286
O      11.69748      5.80873     10.87040         0.800607     -0.118455      0.039915
O      11.72695      9.76069      2.31602         0.436274     -0.210597      0.380485
O      11.91524      9.79991     14.94306        -4.045120      0.321908     -0.540403
O      11.66171      9.52448      6.37803        -1.042958      1.432611      0.019434
O      11.80048      9.79012     10.77351        -1.738884     -0.621331     -0.424392
O       1.91437      3.89650      2.44958        -0.986011     -0.431848     -0.962483
O       2.15014      3.94650     15.05176        -1.076861     -1.084031     -1.171713
O       2.07051      0.02325      2.46552        -0.585707      0.705245     -0.651688
O       1.87192      0.01438     14.73522        -0.167452      0.561463      0.130175
O      14.03471      3.94318      2.20568        -0.752573     -1.409988      0.421872
O      13.51625      3.76786     14.85554        -0.078730      0.092112      0.207169
O      13.55012      0.02152      2.89404         0.516612     -0.529271     -2.464428
O      14.04326     15.47217     15.09542        -0.808896      3.019944      0.008951
O       2.15598      3.75956      6.61443        -1.157074      0.369178      0.458775
O       1.95019     15.42479      6.67024        -1.613502      2.051513     -0.648155
O      13.50724      3.92584      6.74946         0.309881     -1.102848     -1.190298
O      14.07502     15.59558      6.64034        -1.335578     -0.165809     -0.645840
O       2.05497      4.11086     10.65927         0.481284      0.044701      0.609537
O       2.09646     15.60214     10.27784         0.301030     -1.452057      0.939700
O      13.80779      3.72295     10.86668        -1.106868      0.410390     -0.829343
O      13.54862     15.47665     10.63098         0.775616      0.418567      0.716413
O       2.14162      7.77067      2.38216        -0.740754     -0.560705     -0.280566
O       1.99997      7.75195     14.64106         0.353347     -1.000525     -0.104825
O      13.73552      7.76642      2.46530        -0.630353      0.502767     -0.705434
O      13.53394      7.84225     15.00478         0.974361     -1.938473      0.294317
O       1.95075      7.63677      6.52390        -0.404514      1.754636      0.089391
O      13.47379      7.83141      6.80211         1.036694     -0.710549     -0.620002
O       1.76693      7.84398     10.55273         0.156941     -2.029904      0.724843
O      13.81151      7.69293     10.66025        -1.038685      0.063775     -0.064990
O       2.05177     11.71066      2.64852        -0.186286     -3.543739     -0.101838
O       2.23307     11.66306     14.75852        -0.796959     -1.499468      1.069029
O      13.86683     11.71910      2.55759        -1.051100      0.405327     -2.027327
O      13.72365     11.74432     14.92371         0.900357     -0.568767      0.816204
O       2.13047     11.66882      6.02627        -0.272474     -1.979165      0.774952
O      13.45817     11.57446      6.54681         0.400817      1.153540      0.260909
O       1.61659     11.87741     10.70854         1.205761     -3.221887     -0.259099
O      13.47395     11.66664     10.92153         0.753911      1.310529     -1.269907
O       5.94857      3.87416      2.47021         0.113481     -0.542919     -0.053022
O       5.91623      3.85171     14.67941        -0.659682      0.091508     -0.094948
O       5.91136      0.12433      2.39449        -1.119778     -2.084705     -0.754897
O       6.08633      0.04194     14.90919        -0.744688     -1.958607     -0.755808
O       5.82913      3.72555      6.48112        -0.811981      0.977534      0.348195
O       6.01375     15.58499      6.57169         0.242134     -1.089126     -0.164242
O       5.67041      3.84582     10.86556         0.955268      0.363648     -1.123634
O       5.98595     15.43109     10.76655        -1.688797      0.691129     -0.008782
O       5.61949      7.74244      2.47467         1.161068      0.899087     -0.235508
O       5.83978      7.75973     15.19009         1.164649      0.394042     -1.574663
O       5.77564      7.78098      6.70318         1.026922      0.008885      0.254471
O       5.76361      7.95589     10.48556         0.631568     -2.080434      0.382425
O       5.97009     11.61779      2.26854        -0.872828      0.020568     -0.376978
O       6.10847     11.54053     14.90286        -0.331386      0.607945     -0.205991
O       5.55611     11.73084      6.50820         0.785723      0.634772     -0.514977
O       5.73965     11.70461     10.62765         1.090998     -0.277614     -0.005960
O       9.80119      3.91639      1.80589        -0.819904     -1.160294      1.412186
O       9.61982      3.97024     15.16206         0.963782     -2.153808     -0.213916
O       9.24929     15.55878      2.29428         2.832377     -0.714617      0.401552
O       9.50136     15.60531     14.85162         1.020241     -0.320978      0.011221
O       9.89401      3.81970      6.63138        -1.296829      0.177390     -0.255325
O       9.70519      0.24926      6.35963         0.012089     -1.767997      0.549573
O       9.61209      3.94959     10.76109         0.297095     -1.607450     -0.044789
O       9.80150     15.59796     11.15827        -1.068416      0.990539     -1.106455
O       9.76222      7.79509      2.42021         0.579246     -0.173174     -0.253043
O       9.75165      7.73618     14.86991         0.392244      1.485047     -0.468661
O       9.61162      7.86372      6.52238        -1.398790      0.216098     -0.510432
O       9.74065      7.79293     10.87695        -0.087289      0.590548     -0.561719
O       9.78562     11.58756      2.44003        -0.572408      2.149642     -0.759276
O       9.75112     11.75936     14.91418         1.119036     -1.650754     -0.072781
O       9.90541     11.79117      6.66477         0.180742     -1.305507     -0.260572
O       9.85176     11.74236     10.41071        -0.273421      0.106426      0.449241
