  # total energy = -7878.97196302 
CRSYTAL
PRIMVEC
    15.464    0.0000000000000000    0.0000000000000000
     0.0000000000000000   15.464    0.0000000000000000
     0.0000000000000000    0.0000000000000000   17.350608
PRESSURE
-1.0404 -1.08884 -4.76528 -0.252709 -0.103003 0.049506
PRIMCOORD
320 1
Pb       3.79996      3.71086      4.25172         0.323964      0.154936     -0.164593
Pb       3.70781      3.77016      0.00079         0.462080      0.396287     -0.123442
Pb       3.98503     15.35052      4.31555        -0.348093      0.003301      0.074338
Pb       3.74452      0.02505      0.06447        -0.036604     -0.487224     -0.515857
Pb      15.21436      3.82982      4.24611         0.087808     -0.033430     -0.358049
Pb       0.01613      3.96524     17.28524        -0.233667     -0.744939      0.226454
Pb      15.38406      0.00105      4.31322        -0.456241     -0.608703     -0.691397
Pb      15.42754      0.04636     17.33038        -0.284895     -0.538855     -0.203650
Pb       3.89239      3.80470      8.68241         0.710222     -0.207028     -0.271961
Pb       3.85992      0.07583      8.55424         0.000195     -0.416466      0.151643
Pb       0.09523      4.02854      8.71134        -0.952082     -0.841862     -0.380026
Pb       0.07611      0.05947      8.69832         0.027299     -0.187540     -0.153754
Pb       3.91981      3.96361     13.09681        -0.215984     -0.131810     -0.286674
Pb       3.77532      0.15090     12.98211         0.095744     -0.368206     -0.402792
Pb      15.39468      3.84941     13.06180        -0.594038     -0.538173     -0.272212
Pb      15.43265     15.32620     13.05345        -0.036321      0.157964     -0.398267
Pb       4.01509      7.68112      4.34609        -0.355899      0.207098      0.109373
Pb       4.05798      7.85597     17.17118        -0.799868     -0.344026      0.771090
Pb       0.13982      7.75255      4.41136        -0.340624      0.404291     -0.580550
Pb       0.05063      7.72971     17.30100        -0.035429     -0.003993      0.046812
Pb       3.68859      7.58387      8.65784         0.305154      0.671340     -0.550898
Pb      15.19371      7.79844      8.63002         0.967337      0.012444     -0.193349
Pb       3.82441      7.76557     12.97165         0.192053     -0.188134     -0.437103
Pb      15.44005      7.49269     12.99832        -0.437200      0.814902      0.396867
Pb       3.93233     11.47315      4.34267        -0.237602      0.192199      0.076692
Pb       3.87704     11.58071     17.28294        -0.454865     -0.101135     -0.136263
Pb       0.02985     11.64008      4.29226         0.074488      0.043140     -0.460619
Pb      15.41105     11.58561      0.03167         0.652374      0.590863     -0.372293
Pb       3.90524     11.50205      8.76895        -0.487817      0.104685     -0.514756
Pb       0.10475     11.70521      8.67360         0.346276     -0.204633      0.156940
Pb       3.86153     11.62655     12.91956        -0.705101      0.026803      0.353245
Pb       0.01040     11.34167     13.22199         0.294152      0.466879     -0.496373
Pb       7.82996      3.84711      4.25227        -0.476790     -0.241608      0.054615
Pb       7.68042      3.75850     17.29781         0.132489     -0.183698      0.140417
Pb       7.65011      0.00177      4.30598         0.240815      0.208420     -0.244247
Pb       7.74437      0.04912     17.34215         0.179950     -0.206954     -0.395628
Pb       7.78535      3.81859      8.59859        -0.911833     -0.176297     -0.172291
Pb       7.80896     15.28058      8.59145        -0.186818      0.206443      0.077553
Pb       7.77030      3.96965     13.06783        -0.306434     -0.149357     -0.689917
Pb       7.58465     15.43970     12.93106        -0.081251      0.073385      0.003364
Pb       7.79069      7.65663      4.31133        -0.236971      0.260658      0.022391
Pb       7.71539      7.79343     17.24813        -0.238933      0.169860      0.843904
Pb       7.72615      7.71186      8.66071        -0.615787      0.025602     -0.457066
Pb       7.85793      7.75018     12.94700        -0.615766      0.457876     -0.216540
Pb       7.73921     11.60302      4.36370        -0.341443     -0.341301     -0.344396
Pb       7.73099     11.74138     17.33236         0.142120     -0.755814     -0.053036
Pb       7.87583     11.52185      8.65841        -0.292658      0.254674     -0.065852
Pb       7.71439     11.67933     12.94966        -0.262095     -0.799499      0.271959
Pb      11.65183      3.84214      4.22397        -0.361685      0.067690      0.000985
Pb      11.51781      3.76908     17.21629         0.487382     -0.434721     -0.209774
Pb      11.49563      0.05898      4.35001         0.427743      0.111822     -0.442462
Pb      11.58476     15.39086     17.25486         0.291320      0.279195     -0.431635
Pb      11.36041      3.83340      8.54536         1.054096     -0.349389      0.698145
Pb      11.65823      0.03265      8.58463        -0.170191     -0.133792      0.794505
Pb      11.45524      3.88704     12.91204         1.307203     -0.363581     -0.384275
Pb      11.42363      0.03018     12.97781         1.300657     -0.305716     -0.213082
Pb      11.42764      7.73723      4.35832         0.355905     -0.065327     -0.269673
Pb      11.42794      7.66139      0.04351         0.448579      0.210753     -0.144235
Pb      11.51990      7.73308      8.54602         0.200105      0.114159      0.058880
Pb      11.58732      7.60167     12.92159         0.523271      0.439784     -0.163129
Pb      11.53601     11.77454      4.27683         0.281215     -1.207100      0.767723
Pb      11.61176     11.58478      0.05000        -0.101815      0.298498     -0.581850
Pb      11.78804     11.70886      8.73729        -0.678140     -0.164229      0.201719
Pb      11.45567     11.53093     13.11080         0.617035     -0.076152     -0.701325
Ti       1.86998      1.88333      2.41102        -1.107445     -0.006114     -1.514081
Ti       1.96452      1.90235     15.37100        -1.439791     -0.267467     -1.102697
Ti       2.02892     13.53354      2.33634        -1.868458     -0.329134      0.384719
Ti       1.96787     13.51317     15.40491        -1.097243     -1.379180      0.182914
Ti      13.40304      1.87182      2.17734         0.478449     -0.629202     -0.164836
Ti      13.58673      1.86887     15.19205        -0.510471     -0.225760      0.405371
Ti      13.42506     13.42174      2.35752         2.921927      0.965733     -1.684465
Ti      13.46351     13.45819     15.29976         1.205642      1.205950     -0.281648
Ti       1.86560      1.95730      6.53418         0.534658     -1.440412      0.446385
Ti       2.00534     13.48905      6.59443        -0.681432     -0.000298      1.084134
Ti      13.55485      1.98923      6.78978         0.137372     -0.443706     -1.300076
Ti      13.55908     13.54159      6.74087         0.466940      0.733457     -1.300220
Ti       1.86656      1.99229     10.97908         0.129794     -1.148410     -0.535858
Ti       2.01131     13.58983     10.99291        -0.932581     -1.133794     -0.528440
Ti      13.51924      1.84982     10.96174        -0.528152      0.450447     -0.696672
Ti      13.61902     13.42894     11.06835        -0.829737      0.389794     -0.092363
Ti       1.93878      5.74357      2.30000        -0.675279      0.647003     -0.957506
Ti       1.90311      5.74510     15.34101         0.478019     -0.114683     -0.063978
Ti      13.46458      5.81615      2.16445         0.279160     -0.615457     -0.790136
Ti      13.45516      5.77604     15.40748         0.115297     -0.470434     -0.799088
Ti       1.86644      5.71844      6.55030         0.119669      1.252274     -0.339921
Ti      13.48833      5.76680      6.63292        -0.124655      0.140124     -0.767215
Ti       1.75663      5.74783     11.00757         1.357622      0.416438      2.882214
Ti      13.46027      5.78079     10.84721        -0.718935     -1.607158      0.015874
Ti       1.98617      9.61173      2.34566        -1.588706      0.502679     -0.625695
Ti       1.87595      9.58549     15.29559         0.596888      2.397972     -0.956059
Ti      13.54032      9.61984      2.25658         0.706254      0.513754      0.055171
Ti      13.45287      9.61565     15.37090         0.284008      0.095700     -0.807781
Ti       1.79509      9.59946      6.65846         1.351756      0.514756     -0.140291
Ti      13.49064      9.75659      6.65782        -0.104629     -1.025406     -1.200246
Ti       1.88488      9.61601     10.98772        -0.335427      0.809482     -1.254150
Ti      13.60741      9.59226     10.95388        -0.804897      1.450624      0.957093
Ti       5.64185      1.82831      2.16248         1.565567      0.877053      0.372393
Ti       5.82851      1.87832     15.28424         0.129721     -0.744763      0.762899
Ti       5.83162     13.43239      2.28416         0.425344     -0.410438     -1.446066
Ti       5.80491     13.54337     15.32469        -0.812794     -0.916556     -0.073349
Ti       5.76908      1.86050      6.54240         0.485028     -0.002958     -0.539596
Ti       5.75624     13.39357      6.70270         0.247960      0.238091     -0.258612
Ti       5.83752      1.90788     10.98543        -1.057917      0.359908     -0.925086
Ti       5.77446     13.51654     10.89603        -0.453064      0.277048     -1.450442
Ti       5.74695      5.74003      2.35553         0.213331     -0.389884     -1.985799
Ti       5.86971      5.74979     15.36906        -2.238046     -0.179423     -1.512882
Ti       5.72805      5.68894      6.56397         0.790118      0.862312      0.232818
Ti       5.71539      5.74757     11.02209         0.091949      0.291900     -1.298104
Ti       5.80161      9.56664      2.29990         0.564371      0.814286     -0.894481
Ti       5.78609      9.71314     15.23015        -0.394503      0.488746     -0.513350
Ti       5.71424      9.58067      6.64216        -0.518185     -0.529521     -1.214968
Ti       5.75164      9.69334     11.04273         0.428387     -1.080794     -0.117631
Ti       9.59509      1.90429      2.26669         0.181562     -1.036412     -2.068283
Ti       9.72000      1.89840     15.21897         0.006123     -0.582048      0.575811
Ti       9.63371     13.50428      2.34557        -0.235756      0.649654     -1.323027
Ti       9.58931     13.50220     15.22359         0.539690     -0.673139      0.518965
Ti       9.61447      1.90770      6.65307        -0.320428     -0.418261     -0.963096
Ti       9.67634     13.47637      6.56391         0.354131      0.306280     -1.040220
Ti       9.65161      1.88780     11.01494         0.743515      0.188438     -1.738465
Ti       9.64484     13.44502     11.19692         1.347063     -0.063409     -2.507453
Ti       9.56136      5.74119      2.24476         0.147527      0.392700      0.189681
Ti       9.59263      5.78358     15.35718         1.098532     -0.716976      0.704484
Ti       9.63240      5.83194      6.61108        -0.234379     -1.783071     -1.691214
Ti       9.59132      5.75418     10.81274         0.849472     -0.008797     -0.308483
Ti       9.67982      9.65111      2.38165        -0.929226     -0.172828     -1.416350
Ti       9.59079      9.64899     15.44698         0.097069      0.789749     -1.835666
Ti       9.59810      9.64926      6.61826         1.050320      0.009338     -0.950200
Ti       9.69345      9.57466     10.95502         0.270005      0.869160     -1.233563
O       1.94276      1.96355      0.57425         0.265737     -0.281074      0.698519
O       1.77484      1.95433     13.56706         0.810615     -0.522608      0.537550
O       2.07636     13.41898      0.60745        -0.199678      0.502266     -0.857293
O       1.94548     13.50616     13.63298         0.040606      0.470439     -0.404748
O      13.36964      1.79508      0.39493        -0.073819      0.492528      1.274612
O      13.44791      1.86106     13.41593         0.451686     -0.315002      0.204081
O      13.53546     13.28799      0.52556        -0.775710      0.384437      0.902686
O      13.45069     13.68886     13.52777         0.631782     -0.260705     -0.264199
O       1.92135      1.92915      4.76053         0.094754     -0.051092     -0.320403
O       1.94969     13.49291      4.85544         0.109199      0.329903     -0.316781
O      13.49346      2.00120      4.93223        -0.053263     -0.181330      0.838190
O      13.56565     13.68492      4.93223        -0.229877     -0.559798      1.028668
O       1.84370      1.98291      9.14135         0.346229      0.248379      1.214931
O       2.11864     13.41162      9.22724        -0.407517      0.271023     -0.097149
O      13.48316      1.99442      9.11496         0.274755     -0.056731      0.099092
O      13.36138     13.41824      9.25129         0.461922     -0.245478     -0.082891
O       1.77659      5.78829      0.48127         0.642458     -0.324774      0.519721
O       1.81710      5.61521     13.56723         0.133160      0.376020     -0.067579
O      13.36037      5.67048      0.30499         0.333169      0.090455      1.638893
O      13.58542      5.90303     13.59683        -0.486374      0.179268      0.594777
O       1.79832      5.91952      4.79365         0.200682     -0.678744      0.215142
O      13.51522      5.82092      4.78833        -0.142423     -0.423816      1.013447
O       1.90242      5.64844      9.33496         0.292903     -0.050131     -2.732574
O      13.55371      5.62705      9.07560         0.140906      0.402168      0.133402
O       1.95826      9.73962      0.57244        -0.036065     -0.612846      0.001657
O       1.91057      9.86260     13.48296         0.246070     -1.135952      0.864862
O      13.59839      9.84178      0.44799        -0.483546     -0.576172      0.795623
O      13.47088      9.44684     13.58566        -0.296346      0.145555      0.607792
O       1.83931      9.61934      4.84009        -0.247869     -0.144746      0.337113
O      13.59466      9.66518      4.89756        -0.090870     -0.149307      0.139124
O       1.89313      9.57812      9.12213        -0.088421      0.222418      1.571554
O      13.61315      9.81356      9.19737        -0.009808     -0.621942     -0.153464
O       5.83763      1.87064      0.34474        -0.115366     -0.229041      1.067072
O       5.76955      1.79109     13.52328         0.210847      0.163232     -0.449240
O       6.00541     13.28617      0.41270        -0.776369      0.915118      2.202006
O       5.75569     13.51382     13.53751         0.264539      0.072446     -0.138402
O       5.79541      1.88209      4.70369        -0.032806     -0.087447      1.236899
O       5.76043     13.28483      4.89087         0.304268      0.411941      0.129080
O       5.74798      1.96534      9.21722        -0.189523      0.094570     -0.151417
O       5.75684     13.44530      9.02828         0.131329      0.317056      1.391681
O       5.69680      5.78323      0.50802         0.573955     -0.139655      0.392244
O       5.75695      5.61029     13.48406         0.484374      0.315313      1.891644
O       5.79864      5.81820      4.76814        -0.342768     -0.471998      0.346643
O       5.72351      5.66347      9.12334        -0.213364      0.394649      1.645198
O       5.69463      9.73902      0.45190         0.215599     -0.898069      1.441273
O       5.73784      9.78349     13.42204         0.041562     -0.425181      0.178346
O       5.70149      9.52689      4.77462         0.135950      0.515139      1.045518
O       5.81537      9.52670      9.28947        -0.114048      0.049026     -0.411120
O       9.63649      1.83620      0.34601        -0.158259     -0.008467      1.544962
O       9.74788      1.97412     13.43576        -0.247520      0.000080     -0.548452
O       9.49056     13.35047      0.51699         0.549510      0.525832      0.574050
O       9.61442     13.43447     13.43845        -0.174183     -0.100448     -1.197100
O       9.55014      1.77515      4.82984         0.114477      0.164489      0.595675
O       9.78776     13.64659      4.69676        -0.457541     -0.646382      1.520029
O       9.78169      1.90476      9.18224        -0.643758      0.100454      0.448152
O       9.58926     13.37127      9.36406         0.352191      0.171580      0.431344
O       9.34214      5.81288      0.46059         0.751376     -0.187681      0.265788
O       9.59708      5.61193     13.62097        -0.235351      0.765402     -1.024770
O       9.63278      5.84920      4.74109         0.121544     -0.295553      0.947955
O       9.64680      5.86751      9.01105        -0.321047     -0.512705      0.862358
O       9.53175      9.58257      0.52642         0.574309      0.086253      0.669290
O       9.56162      9.49954     13.58552         0.480428      0.078474      0.940360
O       9.62521      9.48035      4.78162         0.025766      0.345450      0.845842
O       9.60821      9.49035      9.09066        -0.107160      0.227185      0.895751
O       3.82104      1.81285      2.68750         0.635124      0.498595     -0.190981
O       3.82632      1.88714     15.67240         1.148056     -0.278079      0.084291
O       3.93285     13.46483      2.68336         0.858671      0.097201      0.070432
O       3.84023     13.50984     15.79553         0.795656     -0.139704     -0.056781
O      15.35199      1.94682      2.50527        -0.001941     -0.142787      0.649460
O       0.02367      1.86010     15.68154        -0.327208      0.204955      0.104390
O      15.43142     13.62333      2.72171        -0.090025     -0.155718      0.271291
O      15.43087     13.47105     15.76626         0.194678      0.431357      0.004107
O       3.93571      1.86215      6.90239        -0.959874      0.318721      0.264354
O       3.87280     13.51806      6.91949         0.003740     -0.423054      0.287707
O       0.07565      1.86765      6.92227        -1.102675     -0.124912      0.298953
O       0.04479     13.52365      7.09375        -0.594701     -0.041323      0.001475
O       3.92749      1.87473     11.28938        -1.378460      0.557717      0.471990
O       3.85441     13.47775     11.28109         1.024085      0.233190      0.524871
O      15.38688      1.85654     11.36997         1.120584      0.216736     -0.153752
O       0.04457     13.69513     11.22849        -0.607616     -0.180227      0.344531
O       3.89956      5.76732      2.63023        -1.345441     -0.392667      0.457741
O       3.75407      5.51860     15.70125         1.192725      0.854131     -0.286547
O      15.39261      5.63282      2.41601        -0.692690      0.389043      0.512409
O      15.43115      5.71909     15.68727        -0.046449      0.186151      0.295820
O       3.84283      5.81394      6.93263        -0.892114     -0.343269      0.111890
O      15.44669      5.80205      7.02929         0.487987     -0.230768     -0.025463
O       3.84582      5.72299     11.55329        -0.497187     -0.159066     -0.711101
O      15.33023      5.82470     11.38619         1.094316     -0.112833     -0.420353
O       3.80463      9.66918      2.72015         1.295560      0.140911      0.109244
O       3.82726      9.79071     15.65189         0.118774     -1.072259     -0.025980
O       0.03538      9.66359      2.68064        -1.147468     -0.437167     -0.004400
O       0.00741      9.76922     15.57141        -0.913279     -1.080324      0.505335
O       3.79581      9.51781      6.88486         0.783384      0.364022      0.595884
O      15.42050      9.65370      7.09566        -0.478945     -0.121108     -0.052405
O       3.73692      9.66066     11.26794         1.214051      0.075578      0.466665
O      15.44432      9.51063     11.56091         0.138520     -0.208272     -0.706576
O       7.74218      1.76709      2.60936        -0.554272      0.112674     -0.095794
O       7.84208      1.75528     15.51484        -1.491650      0.049718      0.398410
O       7.78465     13.63198      2.72755        -1.290719     -0.570864      0.218885
O       7.68312     13.37729     15.60928         0.273095      0.593432     -0.071148
O       7.65004      1.90781      7.12306         0.540980     -0.164897     -0.384506
O       7.77991     13.42554      7.00726        -0.259828     -0.429939     -0.032754
O       7.69183      1.89990     11.14583         1.141690     -0.192988      1.070944
O       7.73193     13.43499     11.28706        -0.842195      0.545122      0.664323
O       7.68641      5.70117      2.80529         0.028791      0.433437     -0.523308
O       7.65662      5.78807     15.64705         0.444774     -0.126560      0.052611
O       7.79028      5.68239      6.94384        -1.298073      0.156201      0.161531
O       7.76055      5.79730     11.29098        -0.270847      0.350072      0.123163
O       7.68610      9.49302      2.71079        -0.117034      0.608216     -0.130666
O       7.71100      9.54720     15.62442        -0.462599     -0.089400      0.105917
O       7.75345      9.71233      6.97706        -0.347021     -1.007178      0.115421
O       7.70491      9.54666     11.38147        -0.000306      0.083480     -0.107497
O      11.49743      1.89018      2.64055         0.569148      0.281201      0.294008
O      11.64019      1.77388     15.62527        -1.217656      0.106352      0.050168
O      11.60063     13.37742      2.68458        -0.615941      0.329744     -0.303899
O      11.60016     13.50152     15.58952        -0.867289     -0.154709      0.662792
O      11.49126      1.87914      7.00252         0.847419     -0.068627     -0.100499
O      11.57765     13.47443      6.97489         0.018364      0.226322      0.299475
O      11.64331      2.00195     11.27358        -1.540572     -0.062367      0.626107
O      11.64905     13.37675     11.51259        -0.968819     -0.089879     -0.064920
O      11.42335      5.70300      2.58869         1.079267      0.266764     -0.253208
O      11.51281      5.73195     15.62575        -0.323489      0.271439      0.335945
O      11.56309      5.70608      7.03698         0.766525     -0.009516     -0.485677
O      11.58177      5.73921     11.16737        -1.070161      0.327423      0.557603
O      11.56395      9.65518      2.69505         0.585172      0.215425     -0.288096
O      11.50187      9.70852     15.76003         0.694664     -0.506677      0.233568
O      11.62012      9.53578      6.93457        -0.791165      0.052520      0.331912
O      11.58439      9.75919     11.25981         0.138596     -0.413188      0.344720
O       1.88593      3.82898      2.67844         0.705862      0.369162      0.358568
O       1.92512      3.75787     15.77224        -0.573427      0.666817      0.119266
O       1.95430      0.01007      2.72216         0.094741     -0.078306      0.129159
O       1.93660     15.39130     15.95822         0.043364      0.874472     -0.664996
O      13.37097      3.83301      2.66388         0.226415     -0.038740     -0.216593
O      13.38811      3.74927     15.52508         0.449263      0.965460      0.513573
O      13.44929     15.37731      2.71149        -0.405046      1.172087     -0.279982
O      13.61111     15.45830     15.76645        -0.484553     -0.504048     -0.158901
O       1.89849      3.79456      6.82817         0.355606      1.427797      0.480140
O       1.96517     15.43901      7.14542         0.021525      0.049430     -0.672578
O      13.68715      3.82644      6.95083        -0.580251      0.698772      0.168452
O      13.57401      0.01948      7.17598        -0.196865     -0.416988     -0.209574
O       1.80504      3.81121     11.45357         0.162555      0.469718     -0.408093
O       1.95361      0.01871     11.32278         0.258947      0.607236      0.308898
O      13.47113      3.92362     11.44244         0.584196      0.070084     -0.233742
O      13.39008     15.45551     11.14776         0.225484     -0.394355      0.534586
O       1.86166      7.67305      2.65201         0.150237     -0.123636      0.039244
O       1.96605      7.71309     15.56612        -0.286988     -0.603868      0.306289
O      13.42679      7.68181      2.40288         0.173122      0.044809      0.128707
O      13.50473      7.68912     15.81050        -0.143333      0.427130      0.116326
O       1.84984      7.72295      6.98673        -0.110056     -1.263327      0.287643
O      13.50653      7.66935      7.06146         0.049477      0.010539     -0.051763
O       1.95859      7.64485     11.26203        -0.131412     -0.002523      0.556270
O      13.37686      7.72362     11.23461         0.369560     -0.431540      0.095746
O       1.80666     11.72520      2.73522         0.729515     -1.821440      0.236582
O       1.82998     11.56954     15.72529         0.715269      0.183582      0.190238
O      13.59764     11.54391      2.72438        -0.490533     -0.206294      0.239257
O      13.49211     11.60300     15.52759        -0.219387     -1.426958      0.348321
O       1.91644     11.54388      7.06674         0.197337      0.352614     -0.218497
O      13.47559     11.59398      7.04114         0.293879      0.787878     -0.002816
O       1.86950     11.58661     11.40855        -0.226890     -0.216823     -0.340243
O      13.76827     11.54217     11.43406        -0.680054      0.030920     -0.113805
O       5.78043      3.76151      2.54880        -0.056303     -0.341096      0.220879
O       5.87993      3.71495     15.63195         0.104044      1.036427      0.020089
O       5.79827     15.41195      2.61099        -0.265026     -0.355240     -0.027205
O       5.80041     15.34006     15.70650         0.073652      1.511628      0.129934
O       5.73208      3.83287      6.94936         0.104715     -0.304643     -0.047773
O       5.76596     15.34538      6.88808         0.460825      0.757844      0.080783
O       5.85367      3.90442     11.32533        -0.166489     -0.793802      0.434792
O       5.75290     15.37862     11.39191         0.435761      0.395235     -0.122436
O       5.71390      7.69593      2.57293         0.050729      0.037163      0.202549
O       5.68686      7.70917     15.56656         0.155889     -0.822224     -0.115753
O       5.76927      7.67621      6.88007         0.563032     -0.207251      0.700631
O       5.62033      7.70844     11.46539         0.600003     -0.145636     -0.208994
O       5.96707     11.55383      2.74828        -0.559432      0.166203     -0.240398
O       5.79200     11.48270     15.61892         0.122164      1.184614      0.094398
O       5.78878     11.44560      7.07908        -0.259150      0.569865     -0.035717
O       5.74514     11.65428     11.16686         0.132483     -1.175269      0.633275
O       9.58136      3.78484      2.49756        -0.251745      0.453392      0.447492
O       9.58760      3.75683     15.63323         0.031805      0.967266      0.298379
O       9.78911     15.37848      2.51412        -0.092368      0.719846      0.399458
O       9.65440     15.29071     15.41837         0.013506      2.056734      0.840987
O       9.64261      3.78787      6.85677        -0.172796     -0.100197      0.453081
O       9.54616     15.31469      6.98741         0.443441      0.955945      0.190931
O       9.65474      3.86627     11.27751        -0.371833      0.348073      0.085182
O       9.69275      0.01982     11.29281        -0.224417     -0.767796      0.560135
O       9.65360      7.75223      2.69813        -0.009899     -1.053321     -0.292491
O       9.64292      7.66257     15.84949        -0.119240      0.043477     -0.690298
O       9.70443      7.58007      6.91300        -0.231792      2.693300      0.410678
O       9.72969      7.69157     11.24797        -0.289354     -0.568496      0.573774
O       9.61203     11.59772      2.71396        -0.123165     -0.861761      0.418072
O       9.58975     11.64104     15.59618         0.371724     -1.987810      0.287830
O       9.68739     11.50575      6.82523         0.019705      0.580635      0.224265
O       9.62329     11.47410     11.39495        -0.289490      0.301571      0.378193
