  # total energy = -7845.36744070 
CRSYTAL
PRIMVEC
    15.6080000000000005    0.0000000000000000    0.0000000000000000
     0.0000000000000000   15.6080000000000005    0.0000000000000000
     0.0000000000000000    0.0000000000000000   16.6239999999999988
PRESSURE
1.7025 0.790869 -3.63069 -0.232919 0.115534 -0.089313
PRIMCOORD
320 1
Pb       4.05976      4.12426      4.24873        -1.187093     -1.130135      0.427774
Pb       3.95232      4.06431      0.14068        -0.270406     -0.304708     -0.304919
Pb       4.06203      0.13588      4.42430         0.817776      0.620447     -0.094538
Pb       3.74975     15.45472      0.12683        -0.680365      1.342358     -0.536149
Pb       0.21087      4.02260      4.29512         0.379826      0.201599     -0.941642
Pb       0.03795      3.81864      0.16751         0.664317      0.176088      0.487269
Pb      15.40470     15.54183      4.48939         0.640990     -0.002239     -0.826601
Pb       0.30364     15.47349      0.00461         0.262479      0.171601      0.166833
Pb       3.88104      3.65466      8.27521         1.012711      1.313418     -0.104286
Pb       3.80484      0.01109      8.46022         1.284501      0.078823     -0.270566
Pb      15.39057      4.03314      8.14355         0.066607      0.366255      0.399604
Pb      15.22452      0.04269      7.99024         0.086193      0.605055      0.575010
Pb       4.02942      3.91258     12.38151        -0.944884     -0.484221      0.154258
Pb       3.79141      0.09014     12.43931        -0.013020      0.722235     -0.169384
Pb       0.06412      3.67102     12.69910         0.680414      0.657485     -0.990558
Pb      15.55381     15.56751     12.24446        -0.708115      0.240760     -0.408360
Pb       3.71922      7.97040      4.25370        -0.332655      0.004041      0.321392
Pb       3.61844      8.07301      0.13411         1.503013     -0.860829      0.106773
Pb      15.59059      7.85958      4.12534        -0.304423     -0.701238     -0.485605
Pb       0.16343      7.97165      0.11262        -1.263151     -0.484457      0.439299
Pb       3.87420      7.91148      8.72382        -0.621949     -1.835920     -0.648960
Pb       0.03668      7.58238      8.51435         0.162359     -1.090799      0.915830
Pb       3.80287      7.65361     12.79074         0.166164     -0.641853      0.401577
Pb       0.21189      7.41463     12.80208         0.070744      0.224678     -0.205488
Pb       3.77134     11.91556      4.49502        -0.321696     -1.106938     -0.151719
Pb       3.59948     11.84631      0.06969         0.618537     -0.686685      0.657819
Pb      15.53271     11.62155      4.69136         0.711072      0.820548     -2.156323
Pb       0.01181     11.86795     16.56302        -0.104163     -0.479558      0.434237
Pb       3.77193     11.67418      8.64710         1.000368      0.118801      0.116883
Pb      15.44400     11.23509      8.16877         0.492778      1.697291      2.478046
Pb       3.69968     11.85168     12.59122         1.588359      0.192497     -0.545095
Pb      15.38916     11.78824     12.40683        -0.786386      0.103583     -0.380077
Pb       7.73021      4.15033      4.11013         0.364983     -0.321990      0.415830
Pb       7.82826      3.66912     16.57348        -0.070171      1.763001      0.377655
Pb       7.88861      0.06913      4.04966        -1.011783     -0.608180      0.028771
Pb       7.67290      0.13628      0.02241         0.265776     -1.070855      0.321259
Pb       7.78344      3.96439      8.54752         0.095660      0.548688     -0.654174
Pb       7.75534      0.13739      8.31263        -0.675086      0.008169     -0.353330
Pb       7.97818      3.84440     12.60224         0.110173     -0.256845      0.475808
Pb       7.71653     15.44512     12.78730        -0.053654     -0.404543     -0.457460
Pb       7.69715      7.71474      3.99852         0.863063      0.224496     -0.774347
Pb       7.75159      7.92821     16.50077        -0.256179      0.017282      0.461835
Pb       7.89062      7.79552      8.34237        -0.304390     -0.512153     -0.820342
Pb       7.58650      7.69990     12.78950        -0.296545      0.943827     -0.316781
Pb       7.59126     11.92232      4.22264         0.490014      0.998871     -0.117896
Pb       7.65550     11.44530     16.61209         0.035078      0.230702      0.014099
Pb       7.58048     11.81685      8.47376        -0.605669     -0.397488     -0.100230
Pb       8.15348     11.91597     12.83769        -2.527440     -0.411307     -1.006052
Pb      11.97830      3.90510      4.03300        -1.260777     -0.145859     -0.898592
Pb      12.02259      3.79520      0.01568        -0.649241      0.198530      0.984109
Pb      11.93213     15.34735      4.18409        -1.442009      0.550294      0.409552
Pb      12.24774     15.52200      0.36074        -1.005051      0.345622     -0.335612
Pb      11.62441      4.09582      8.45109        -0.581475     -1.083621     -0.102075
Pb      11.48886      0.22971      8.10710        -0.173036      0.713270      0.374275
Pb      11.80061      3.75235     12.73745        -1.019051     -0.341257     -0.824509
Pb      11.68849     15.42905     12.10046        -0.305375      0.246852      0.756745
Pb      11.52101      7.57879      4.21043         0.174629      0.975759     -0.932484
Pb      12.04867      7.72753     16.60451        -0.259013      0.302826      0.757516
Pb      11.74942      7.68124      8.55624         0.119711     -0.339758     -0.058706
Pb      11.61751      7.67173     12.53844         0.520346      0.839896      0.021789
Pb      11.59153     11.60874      4.30717        -0.573158      0.758693     -0.970532
Pb      11.79025     11.61276      0.07328        -0.144416     -0.681434     -0.307927
Pb      11.56175     11.21131      8.19346        -0.570394      0.259481      0.322804
Pb      11.38931     11.48138     12.15862         1.274176      1.127388      1.175361
Ti       2.05990      1.96234      2.47380        -1.177342      0.290544     -2.241375
Ti       1.88228      1.92745     14.68483         1.329037      0.476915      0.088026
Ti       1.95136     13.67428      2.47017        -2.315240      1.078296     -0.257249
Ti       1.83056     13.65368     14.22718         0.842934      1.409703      2.110318
Ti      13.94344      1.96292      2.11922         0.696180      0.867415      0.299645
Ti      13.55012      1.87074     14.41053         1.578773     -1.021321     -1.009303
Ti      13.82256     13.59984      2.03207        -1.451675     -0.868119      0.590377
Ti      13.50873     13.55773     14.46097        -0.735484      0.545220     -1.947808
Ti       1.95944      2.04418      6.17883         1.768381      0.231087     -0.237577
Ti       1.94813     13.76000      6.55440        -0.646388     -0.078116     -0.733706
Ti      13.45207      2.07046      6.01224         1.223141     -1.023537      0.802593
Ti      13.43492     13.41656      6.35437         0.008567      2.574974     -0.762767
Ti       1.95068      2.00844     10.04182         0.101791      0.077150      2.325617
Ti       1.91227     13.59793     10.30225        -1.567297      1.844944      0.541531
Ti      13.72477      1.94186     10.27286        -2.073778      0.577300      0.030188
Ti      13.40558     13.60974     10.03725         1.207334     -0.580713      1.940560
Ti       2.00674      5.91585      2.32445        -1.870998     -0.010933     -0.234578
Ti       1.91656      5.77121     14.96297         1.296340      0.168700     -0.629283
Ti      13.67682      5.88606      2.31200         2.752704      0.429611     -2.017951
Ti      13.62127      5.79849     14.55799         1.659216      0.431243      1.755681
Ti       2.00291      5.87364      6.40333         0.333426      0.385755      0.629858
Ti      13.62700      5.67339      6.12602         0.264897      1.883816      1.196138
Ti       2.11587      5.86101     10.53321        -0.583832     -0.525088      0.012733
Ti      13.64418      5.72988     10.68222         2.879091      0.162668     -0.133388
Ti       1.81310      9.92533      2.15143         1.441584      0.302334     -2.876778
Ti       1.92630      9.85522     14.67556        -1.350784     -2.340824      0.604314
Ti      13.60206      9.80521      2.18759        -0.308724     -0.645064     -0.569168
Ti      13.69005      9.72619     14.51519        -0.465398     -0.307345      0.352574
Ti       1.89621      9.76267      6.55671         2.915877     -1.156281     -2.595167
Ti      13.66696      9.63263      6.31349        -1.731602     -2.833860     -0.555515
Ti       1.90485      9.85251     10.85016        -2.461570     -2.206564     -0.840326
Ti      13.60703      9.74176     10.58308         1.908213     -1.204129      1.054376
Ti       5.84362      2.04630      1.98709        -0.362412     -2.398512      0.720137
Ti       5.78344      1.70230     14.60782        -1.892613      2.663673     -0.663500
Ti       5.55981     13.76090      2.18013         4.508779      0.269596      0.259981
Ti       5.70361     13.43887     14.79134         2.108108      1.363782     -1.284048
Ti       5.97170      2.08895      6.32219        -1.762437     -0.851350     -0.256870
Ti       5.69948     13.64246      6.43242         2.047556      2.267273     -0.119443
Ti       5.87113      1.84829     10.46824        -0.006541      0.813003     -0.529294
Ti       5.87455     13.71330     10.47800        -0.458984     -1.090700      0.926291
Ti       5.65826      6.03173      2.04899         0.341394     -2.100314     -2.133179
Ti       5.79897      5.62313     14.48532        -0.599079      0.643791      1.590403
Ti       5.75421      5.99776      6.12248         0.883202     -2.437097      0.369728
Ti       6.08792      5.78321     10.60775        -2.286728     -0.620343     -1.624910
Ti       5.70887      9.89965      2.26766        -1.073414     -1.322156     -2.811590
Ti       5.65650      9.66531     14.50782         2.989239     -0.274104     -0.400102
Ti       5.80854      9.73667      6.11666        -0.888815      0.542172      0.180486
Ti       5.59611      9.55397     10.49590         2.953638      1.313471      1.563748
Ti       9.81833      2.03546      2.33604         0.925609      0.499944     -0.285632
Ti       9.74903      1.96098     14.81541         1.348881      0.431085     -1.103163
Ti       9.73285     13.68788      2.05468        -0.905845     -0.131089      2.509992
Ti       9.72254     13.70592     14.85723         0.010907     -0.112735     -0.999997
Ti       9.67141      2.09929      6.19355         0.125607      1.212499      1.335606
Ti       9.65133     13.63635      6.31529        -0.584691      0.261596     -2.662254
Ti       9.66312      1.79379     10.53639         1.544695      0.997330      0.917506
Ti       9.68665     13.46169     10.09300        -1.649643      0.992614      1.296630
Ti       9.56001      5.76415      1.97299        -0.668045      0.934782     -1.945719
Ti       9.82523      6.03471     14.47824        -1.696167     -2.519350      0.931994
Ti       9.82592      5.93195      6.15023        -2.046132     -2.453851     -0.222028
Ti       9.86601      5.78498     10.55441        -0.917351     -1.781081      0.040018
Ti       9.72106      9.84369      2.05198         0.035801     -1.744048     -0.934926
Ti       9.77709      9.79850     14.46089         0.167150     -2.102375      1.362834
Ti       9.71519      9.61724      5.98014        -1.513074      0.634700     -0.125178
Ti       9.51466      9.52076     10.50129        -1.155720      0.871732     -0.222034
O       1.80870      1.45714      0.20213         0.524643      1.064477     -1.045601
O       2.28634      2.16470     12.84445        -1.304876     -0.594213     -0.183300
O       2.10932     13.60088      0.00119        -1.136210      0.459794     -0.074596
O       1.90529     13.65002     12.40256         0.510375      0.508796     -0.023530
O      13.80738      2.17219      0.28846        -0.464083     -1.487417     -1.615146
O      13.72999      1.92298     12.55401         0.051924      0.180841     -0.157768
O      13.48778     13.50371      0.17532         0.971868      0.432847     -0.765935
O      13.40885     13.57683     12.45450         0.965336      0.242049      1.496878
O       2.01926      2.08886      4.32489         0.022245     -0.512589     -0.206103
O       1.85255     13.47580      4.22878         0.124332      0.756048      0.925138
O      13.68903      1.83249      4.06613        -0.286376      0.315988      1.271592
O      13.52615     13.64481      4.47732         0.789190     -0.097838      0.622336
O       2.03554      1.93766      8.24693        -0.232796      0.232950      0.943201
O       1.93863     13.63944      8.42497         0.260187     -0.307763     -1.918202
O      13.60112      2.10676      8.25364         0.326829     -0.291765      1.272352
O      13.44236     13.89200      8.24613         0.973500     -0.301409      1.206280
O       1.89223      6.31008      0.07246        -0.417913     -2.670313     -0.801470
O       2.04588      5.61533     12.55170         0.083725      1.038288     -1.326202
O      13.70359      6.08602      0.13323        -0.001285     -1.336105     -1.112485
O      13.74959      5.84477     12.68609        -0.078567     -0.426394     -2.269513
O       2.33545      6.08328      4.32256        -0.971759     -0.822503     -1.172561
O      14.05235      5.77123      4.23627        -1.507614      0.339470      0.372581
O       2.00312      5.92131      8.37152        -0.156065     -0.057689     -0.414577
O      13.50384      5.57213      8.24641         1.282271      0.205837     -0.470536
O       1.91974      9.88689      0.00337        -0.348957      0.590883     -1.797243
O       1.75210      9.52993     12.59532         0.686905      0.941488     -0.113340
O      13.35328      9.66171      0.04319         0.565465      0.270282     -0.240133
O      13.75029      9.83580     12.58363        -0.446989     -0.193095     -1.546412
O       1.77926      9.79166      3.82846         0.343613     -0.169977      3.810361
O      13.77055      9.59240      4.09150         0.283545      0.649204      1.395237
O       1.91974      9.88665      8.28316        -0.140916      0.082828      1.926110
O      13.74308      9.66421      8.25570        -0.616597     -0.024622     -0.979715
O       5.80465      1.59606      0.19289        -0.097017      0.999037      0.436198
O       6.02249      1.79507     12.72125        -0.538676      0.203329      0.042702
O       5.65079     13.59143      0.13599        -0.060990      0.605103      1.018891
O       5.97471     13.67541     12.78247         0.093884     -0.089223     -0.892793
O       5.91063      1.84135      4.53890         0.132467      0.200849     -1.355875
O       6.04638     13.72412      4.21219        -1.277927     -1.224936      0.667432
O       5.64900      1.55506      8.49131         1.413522      1.263672     -0.191620
O       5.89761     13.82645      8.28148         0.309404     -1.172117      1.180235
O       5.72916      5.89114      0.01618         0.656305     -0.146460      1.191397
O       5.76942      5.54081     12.48808        -0.384951      0.691535      1.531526
O       5.57813      5.77325      4.17425         1.013561      0.774516      0.713546
O       6.11665      5.79414      8.69190         0.621780      1.047114     -0.249207
O       5.93197      9.46809      0.24392         0.794684      0.776527      0.021907
O       5.91499      9.64041     12.71861        -1.529812      0.819968     -0.208667
O       5.40232      9.88800      4.26585         2.077944     -0.473056     -0.331616
O       5.60775      9.54648      8.66075         0.661894      0.431487     -0.327307
O       9.97432      2.20083     16.54566        -0.001290     -0.388408      0.809496
O       9.59541      1.94678     12.41513        -0.119881     -0.677943      0.052094
O       9.76875     13.38986      0.35454         0.759732      0.498642     -2.851126
O       9.62149     13.54512     12.67659         0.793522      0.644843      1.131781
O       9.61415      2.24688      4.30543         0.458837     -1.141940     -1.603763
O       9.92743     13.53218      4.37906        -0.051808      0.548145      0.135350
O      10.07048      2.20661      8.29165        -1.103335     -1.387672      0.008547
O       9.53545     13.43735      8.23621         0.465220     -0.479776      1.941828
O       9.36237      5.43929      0.05123         1.201461      1.630053      0.884663
O       9.90429      6.05160     12.47965         0.616291      0.253345      1.226153
O       9.79702      5.80372      4.26526        -0.315984      0.326479      0.608103
O       9.73682      5.82928      8.52283        -0.100919      0.265337      0.734510
O       9.51571      9.99026      0.08595         0.819621     -1.222014      1.615990
O       9.82478      9.55184     12.52589        -0.067636      0.178629      0.017391
O       9.63104      9.25491      4.15783         0.592300      1.279357      1.704611
O       9.82411      9.70526      8.53674        -0.491698     -0.150791      0.496037
O       3.79906      1.58661      2.31254         2.651782      0.174902     -0.432474
O       3.84547      1.69595     14.72922         2.208483     -0.194905      0.463471
O       3.84775     13.95810      2.34848        -1.362025      0.125216      0.006902
O       3.96951     13.65822     14.45834        -2.392792     -0.048381      0.017555
O       0.15642      2.17072      2.18305        -2.348972      0.087884      0.259536
O       0.03188      2.24840     14.41988        -0.181189     -1.102050      1.226608
O      15.44097     13.00255      2.44795         1.772344      1.152555     -0.536061
O       0.11137     13.53467     14.56679        -2.032639     -0.074658      0.031737
O       3.93369      2.33869      6.29503         0.315269     -1.330050      0.486541
O       3.84240     13.37023      6.31236         0.053772      0.395533      0.275190
O       0.17668      2.02896      6.28851        -1.483841     -1.527294      0.331520
O      15.60013     14.02287      6.44713         0.217443     -1.297203     -0.448251
O       4.02808      1.81502     10.33720        -2.814424      0.273474      0.638577
O       3.96440     13.66018     10.17654        -0.370144      0.320559      0.587053
O      15.60555      1.91274     10.57664         1.137089     -0.362075     -0.704985
O       0.04107     13.48183     10.28539        -0.581079      1.051971      0.410380
O       3.74380      5.72234      1.95573         3.390330      0.017816      0.029367
O       3.85573      5.54384     14.70112         1.020855      0.924587     -0.943373
O       0.21102      5.71546      2.49117        -0.391200     -0.094433     -0.479397
O       0.11665      5.67127     14.50260        -1.454737      0.074771     -0.005166
O       3.94352      5.80863      6.36448         0.544760     -0.511704      0.564388
O       0.08939      5.86620      6.42857        -0.229506      0.022619      0.003404
O       3.93703      5.92868     10.36756        -0.848191      0.151733      0.437856
O       0.03510      5.90969     10.34509        -0.960648     -0.307735     -0.107772
O       3.81299      9.79115      1.68867         0.847142      0.291598      2.007474
O       3.90120      9.60303     14.82918        -1.822353      1.091748     -0.961191
O       0.01932      9.95685      1.87761        -1.122182      0.414214     -0.151806
O      15.54907      9.77343     14.75344         0.679911      0.417002      0.056731
O       3.86552      9.95345      6.21985        -0.538325     -0.109651      0.662244
O       0.02081      9.80327      6.20956        -1.579722     -0.841354      0.285122
O       3.75641      9.87559     10.65744         0.398368     -0.443320     -0.229074
O      15.54321     10.10635     10.52806         0.790121     -0.406429     -0.723514
O       7.83077      2.08023      2.11616        -0.018212     -0.216391      0.020309
O       7.92056      1.94514     15.04691        -1.173607     -0.519018     -1.285169
O       7.88687     13.48935      2.26968         0.565484      0.306328      0.171369
O       7.86470     13.56243     14.89366        -0.227631     -0.265751      0.039684
O       7.81488      1.70304      6.42145         0.673881      0.465486      0.607511
O       7.79574     13.67275      6.23549         0.174440     -0.103076      0.130274
O       7.74928      1.89783     10.28811         1.207366      0.373738     -0.501866
O       7.73615     13.57949     10.38699         1.217198      0.214266     -0.563190
O       7.61287      5.77108      2.29269         0.091812     -0.252916      0.207206
O       7.84485      5.87516     14.29301         0.162482      0.404203      0.522100
O       7.82097      5.95741      6.25834         0.049817      0.751566     -0.088660
O       7.85622      5.67665     10.98694         1.371630      0.892970     -1.523531
O       7.87896      9.37384      2.21769        -1.816577      1.424523      0.355874
O       7.77301      9.52786     14.60640        -0.067472     -0.577555      0.459980
O       7.71983      9.45536      6.24290         0.301688     -0.156103      0.166454
O       7.65983      9.36465     10.65467         1.639801      0.596276     -1.216701
O      11.74851      2.25030      1.99018        -0.715031     -1.623140      1.090674
O      11.72354      2.06048     14.31349        -1.367173     -0.990578      0.993518
O      11.96988     13.94769      2.53489        -1.165226     -1.047338     -2.242662
O      11.72838     13.74590     14.76847        -0.116018     -0.649565      0.221461
O      11.72834      2.36628      6.14862        -0.141970     -0.388894     -0.241654
O      11.66882     13.51421      6.55385        -0.441208     -0.378072     -0.575253
O      11.65157      1.94215     10.54122         1.337516     -0.405269     -0.117166
O      11.47893     13.59036     10.43716         1.588337     -0.264055     -0.555077
O      11.95469      6.25670      2.35217        -1.617304     -1.160978     -0.184093
O      11.82115      5.92467     14.40334        -0.777647     -0.322599      0.593585
O      11.73815      5.51218      6.12935         0.408709     -0.103786      0.091048
O      11.87103      5.76129     10.38070        -1.823306      0.539130      0.376240
O      11.69191      9.53215      2.32630        -0.246759     -0.410331     -0.371466
O      11.61263      9.88252     14.55234         1.280116     -0.348969     -0.135629
O      11.67150      9.85141      6.19966         1.416700     -0.270366      0.296168
O      11.81371      9.87578     10.46508        -1.139688     -0.197917     -0.297427
O       2.04086      3.86073      1.87583         0.294951     -0.197908      0.466833
O       2.05211      3.93896     15.20017        -0.835148     -1.926920      0.018429
O       1.57354      0.09279      2.46713         0.225615     -2.604628     -0.126432
O       1.79052     15.56587     14.66666        -0.009389     -0.608152     -1.134593
O      13.72239      3.98114      2.13262        -0.250790     -0.058535      0.453007
O      13.48989      3.75981     14.75876         0.736566      2.381362     -0.446272
O      14.10609     15.50755      2.08140        -0.744912      0.732668     -0.056451
O      13.70355      0.02916     14.53206         0.289531     -0.959680      0.913532
O       2.11260      4.01599      6.08343        -1.299458     -0.218036      0.854186
O       2.27888      0.01928      6.22190        -0.841604     -0.915233      0.473254
O      14.18856      3.81548      5.91308        -1.908484      0.106418      1.084414
O      13.44664      0.13883      6.24159         0.742653      0.219843      0.495247
O       2.16047      3.87379     10.47516        -0.490395     -1.432157     -0.926434
O       2.11908     15.57995     10.44715        -0.815560      1.036494      0.328962
O      13.70925      3.85501     10.56834         0.077553     -0.048060     -0.179447
O      13.56003     15.58321     10.57378         0.541715     -0.304838     -0.792975
O       1.95065      7.73231      1.81967        -0.339281      2.559858      2.431875
O       2.01028      7.81617     14.59141        -0.412736      0.409348     -0.641432
O      14.26025      7.70875      2.07992        -0.748273      1.276998      0.771703
O      13.83199      7.77821     14.53251        -0.790753      0.045457      0.096504
O       2.03043      7.88837      6.25961        -0.064190      0.789793      0.286037
O      13.45020      7.52032      6.22088         0.732120      2.970841      0.263504
O       1.77220      7.87294     10.39636         0.839665      0.653450      0.042210
O      13.64294      7.79635     10.32153        -0.063328      0.615708      0.267345
O       2.20835     11.92998      2.04314        -0.013021     -1.932849     -0.122453
O       1.81901     11.60189     14.14950         1.168913      1.035782      0.794358
O      13.32341     11.62373      1.91956         0.238804     -0.334423      0.927607
O      13.66420     11.68193     14.45621         0.210210      0.929386      1.043079
O       1.82860     11.71995      6.10302        -0.359238      0.312651      0.866231
O      13.68495     11.61079      6.36401         0.152366     -0.697587      0.030801
O       2.10361     11.79636     10.61526         0.206617     -1.575637      0.063285
O      13.59124     11.78787     10.27337        -0.492909      0.143127     -0.405675
O       5.55507      3.76968      2.17443         0.543929      0.729193      0.189926
O       5.92568      3.79301     14.70453         0.325384     -0.603261      0.135569
O       6.00293     15.59024      2.53970        -0.133681     -0.157871     -1.411696
O       6.12538     15.58393     14.75279         0.060990     -1.599716      0.272766
O       6.00660      3.93715      6.30807         0.372187      0.235703      0.673994
O       5.64806     15.56994      6.47360        -0.310820     -1.135532     -1.050616
O       5.80732      3.86426     10.41547         0.326029     -0.727438      0.355735
O       5.94261      0.02226     10.74790        -0.192629     -1.443178      0.012851
O       5.50389      7.71114      2.34284         0.530006      2.232622      0.465939
O       5.70769      7.58865     14.35931         0.113555      0.768054      0.193920
O       5.56836      7.71688      6.33238         0.541041      3.135919      0.060655
O       5.60650      7.77092     10.85424         0.113921     -0.262827     -0.668773
O       5.66573     11.69331      2.22763         0.438990      0.417489      0.116257
O       5.79577     11.64155     14.78923         0.056643     -1.208751     -0.060004
O       6.04983     11.62091      6.44084        -0.314824     -0.170059     -0.040849
O       5.77492     11.82771     10.48832        -0.033392     -1.172139     -0.569528
O       9.86010      3.95736      2.21550        -0.090058     -1.478716      0.754062
O       9.73163      4.07044     14.47125         0.493475     -1.595359     -0.511201
O       9.78746      0.03066      2.14009         0.007188      0.665680      0.333313
O       9.66428     15.48960     14.78977         0.207330      1.353912      0.268590
O       9.60633      3.95977      6.29238        -0.535842     -0.369906      0.415934
O       9.86529      0.03839      6.41075         0.339964     -0.509075     -0.011439
O       9.84475      3.89029     10.71353        -0.464648      1.282498     -0.835267
O       9.77752     15.52053     10.39206        -0.383514     -0.535502     -0.609242
O       9.59716      7.50436      2.25779         0.610007      1.453052     -0.508103
O      10.12616      7.77195     15.00190        -1.407489     -0.018469     -1.070373
O      10.03814      7.75442      6.42475        -0.200561      0.396940      0.315793
O      10.03672      7.75418     10.52996        -0.077552     -0.145525     -0.614639
O       9.92363     11.60371      2.26763         0.193083      0.512396      0.879060
O       9.52280     11.51385     14.72288         0.508710      2.510689     -0.324304
O       9.68042     11.56060      6.04985         0.086568     -0.796521      0.629761
O       9.56471     11.59162     10.75216         0.092140      0.258355     -1.592717
