  # total energy = -7840.33297782 
CRSYTAL
PRIMVEC
    15.6080000000000005    0.0000000000000000    0.0000000000000000
     0.0000000000000000   15.6080000000000005    0.0000000000000000
     0.0000000000000000    0.0000000000000000   16.6239999999999988
PRESSURE
3.91466 3.27738 2.01077 -0.081208 0.414619 0.086651
PRIMCOORD
320 1
Pb       3.50329      3.95107      4.05990         1.173887     -1.423384      1.123602
Pb       3.76134      3.96244      0.23900        -0.298673      0.740335     -0.627297
Pb       3.65041      0.00493      4.19664         0.731300      0.528962     -0.467557
Pb       3.92609     15.47274     16.26640         0.069810      1.071664      1.305069
Pb      15.41339      3.95486      4.11928         0.933833     -0.544583      0.388354
Pb       0.11006      3.73096     16.39502         0.569845      0.437269      0.230569
Pb       0.20175     15.40307      4.28773        -1.368771      1.103937     -0.483834
Pb       0.05049     15.39098      0.06181         0.735418      0.544118      0.117238
Pb       3.93766      3.95544      8.35350        -0.610952     -0.058325     -0.255809
Pb       3.91095     15.52074      7.89765        -0.109768      1.415028      1.718756
Pb       0.00515      3.98751      8.40362         0.311347     -0.465267      1.157457
Pb       0.26171      0.30393      8.65970        -1.332378     -0.664195     -1.732114
Pb       4.19687      3.79915     12.49618        -1.850889      1.558026      0.918261
Pb       3.89746     15.41684     12.40166        -0.330975     -0.225448      0.829787
Pb      15.45470      3.79733     12.38780         0.707077      0.549588     -0.420242
Pb       0.09908      0.27889     12.62242        -0.449523     -1.295172      0.530338
Pb       3.76926      7.59239      4.31098         0.513380     -0.751664      0.216965
Pb       3.80861      7.90355      0.07712        -0.215479     -1.028249     -0.726713
Pb      15.35774      8.02339      4.33181         1.025699     -1.021587      0.436536
Pb      15.39099      7.85177      0.28502         0.591099      0.631872     -1.741919
Pb       3.65675      7.85178      8.09604         0.115494     -2.186592      1.282926
Pb      15.52373      7.57005      8.40409         1.543440      0.821160      0.115257
Pb       4.09424      7.97243     12.27281        -0.808169     -0.847749      0.910385
Pb       0.00144      7.73992     12.67640         0.868678      0.714879     -0.513315
Pb       4.17681     11.43596      3.79770        -0.739887      0.675780      0.855782
Pb       4.18573     11.53183     16.35998        -0.538955      0.037456     -0.396604
Pb      15.33312     11.77122      4.32177         1.060600      0.195129     -0.092159
Pb      15.59594     11.63982      0.21089         0.766450      0.016007     -0.920739
Pb       4.17514     11.66684      8.50652        -1.047499      0.001543     -1.052603
Pb       0.05161     11.46478      8.74296         0.082811     -0.607431     -1.281034
Pb       3.54842     11.67065     12.22506         0.594094     -0.661642      1.855858
Pb       0.02439     11.64091     12.44270         0.519827     -0.285984      0.666204
Pb       7.72621      3.91977      4.44634        -1.399941      1.175391     -0.833912
Pb       7.89044      3.75165      0.25376        -1.147951      1.209563     -1.038561
Pb       7.30132      0.15430      4.07255         1.824899     -0.724152      0.626377
Pb       7.91594      0.24207      0.26329        -1.761671     -0.699113     -1.652930
Pb       8.12694      3.87124      8.74654        -0.193923     -0.208593     -0.681820
Pb       7.82475      0.16453      8.36303         0.557373      0.737982     -0.858435
Pb       7.80159      3.56406     12.70362         0.353960      1.562716     -0.040783
Pb       7.62708     15.39686     12.33054         1.237852      0.316335      1.535792
Pb       7.97825      7.74930      4.01549        -0.411714     -1.254603      0.793054
Pb       7.99280      7.75330     16.39405        -0.916996      0.627666     -0.352025
Pb       7.86754      7.55461      8.12870        -0.336431      0.951083      0.692388
Pb       7.72551      7.60704     12.40198         0.357187      0.527304      0.565316
Pb       7.74520     11.75678      4.34074         0.960144      0.464519     -0.777028
Pb       7.58254     11.39819      0.01384         1.446747      0.467992     -1.483715
Pb       7.65078     11.90315      8.66071         2.145794     -1.337375     -0.719792
Pb       7.46004     11.87000     12.41954         2.375720     -1.862128      2.410467
Pb      11.86227      4.09472      4.05421         0.172164     -1.381402      2.556894
Pb      11.63502      3.80282      0.19414         0.731532     -0.121075     -0.877419
Pb      11.43586      0.25747      3.79729         2.033739     -1.700624      1.075922
Pb      11.45405     15.47128     16.48218         0.854938      1.303936      0.741238
Pb      11.56836      3.68605      8.15929        -0.659486      0.107940      2.839438
Pb      11.43430     15.53650      8.44722         1.337492      1.299422     -0.345308
Pb      11.77611      4.18333     12.54094        -0.219299     -1.259341      0.617002
Pb      11.82600      0.25853     12.47754        -0.530277     -1.657777      1.006971
Pb      11.92261      8.03454      3.88181        -0.853843     -0.744842      0.786386
Pb      11.27302      7.79313     16.54733         3.312251      1.153964      0.266023
Pb      11.27273      7.83578      7.99616         0.615920      0.095141      0.467918
Pb      11.82812      7.91400     12.22807        -1.437982     -0.664214      1.095130
Pb      11.64191     11.98377      4.34058        -0.541470      0.503776     -0.550874
Pb      11.52734     11.83179      0.33702        -0.164127     -1.282524     -1.096701
Pb      12.09577     11.43098      8.32481        -2.012355      0.572844      0.350385
Pb      11.73062     11.85678     12.50810        -0.267585     -0.296140      0.470349
Ti       1.92504      1.94583      2.02990         0.653034     -0.281140     -1.074472
Ti       1.87730      1.92654     14.53395         1.973114      0.419161      1.547034
Ti       2.09515     13.61884      2.17193        -1.184120     -0.411932      1.343613
Ti       2.02924     13.47427     14.73499        -0.516421     -0.276200     -0.173769
Ti      13.78837      1.92136      2.13089         0.003325     -1.188417      2.379411
Ti      13.60956      1.80064     14.78052        -0.635958      0.398342     -0.582750
Ti      13.65200     13.70900      2.17845         0.900776      1.257180      0.951382
Ti      13.74787     13.60429     14.83809         0.794841      0.711853      0.535836
Ti       1.75370      1.79901      6.31744         0.619195      1.221961     -0.819598
Ti       2.10671     13.49288      6.23035        -1.501684     -0.702098      0.468112
Ti      13.47185      1.75763      6.42148         3.010075      0.317283     -1.457183
Ti      13.83443     13.58369      6.44563        -0.047530      2.227735      0.292490
Ti       2.21114      1.78587     10.50244        -0.645810      1.579227      1.038768
Ti       1.79620     13.51087     10.18418         1.071753      0.683909      0.680590
Ti      13.62905      1.79010     10.42514        -0.776113      0.869631     -0.083459
Ti      13.64739     13.65761     10.43720         0.097806      0.548283      0.776794
Ti       1.80724      5.99205      2.24349         1.415766     -4.476028     -1.658709
Ti       1.94444      5.91491     14.47364         2.281776     -0.257000      2.199426
Ti      13.70365      5.82057      1.96235        -0.400408     -0.539066      0.871392
Ti      13.73461      5.70756     14.65636        -0.993988      0.963643      0.509864
Ti       1.71993      5.51613      6.43048         4.183490      1.418576     -0.354491
Ti      13.53584      5.84752      6.53907        -1.896240     -0.602059     -1.267792
Ti       2.06711      5.96512     10.77041        -2.067936     -1.543808     -1.774433
Ti      13.61125      5.81505     10.33369         1.387645     -0.466291      5.720924
Ti       1.99658      9.69018      2.46499         0.101797      0.691309     -1.259014
Ti       1.98037      9.65421     14.68828        -0.438618     -0.617325     -1.147702
Ti      13.70407      9.82513      2.16950        -0.632462      0.347553     -0.066484
Ti      13.67497      9.78095     14.61192         0.363253     -1.019685      2.424757
Ti       2.16799      9.72344      6.25341        -3.287478     -0.503980      0.715010
Ti      13.63765      9.76450      6.34096         1.560325     -1.556827     -0.875300
Ti       1.95920      9.62439     10.36721        -2.766792     -0.964704     -0.018625
Ti      13.66701      9.74084     10.62078         0.886197     -1.257727     -1.470338
Ti       5.86865      1.98650      2.06992        -3.082837      0.895926     -0.577087
Ti       5.61793      2.06132     14.63798         3.346014     -0.681361      1.278463
Ti       5.87186     13.64651      1.96829        -1.201823     -0.242788     -1.261598
Ti       6.13696     13.73829     14.74758        -0.574013     -0.343597     -0.181606
Ti       5.72384      1.90643      6.24578        -0.306554      2.257537     -0.005888
Ti       5.98818     13.67820      6.20950        -0.321040     -0.798686      3.372676
Ti       5.87552      1.92592     10.63029        -0.094386     -0.335770     -1.509328
Ti       5.82329     13.61568     10.47089        -0.501615     -0.124736     -0.830183
Ti       5.80898      5.71445      2.18827         1.184583     -0.595879     -1.683881
Ti       5.89921      5.91155     14.74624        -1.232066      0.134901     -0.570534
Ti       5.72745      5.82073      6.38434         0.184001     -0.135538      0.521021
Ti       5.86246      5.75852     10.31568        -0.893809      2.101241     -0.195161
Ti       6.05491      9.53591      2.18540        -1.674772     -0.416465     -2.298455
Ti       5.88882      9.65675     14.42820         1.477165      0.811247      1.822327
Ti       6.00510      9.85516      6.45209        -0.206767     -2.150268     -1.019753
Ti       5.95939      9.73412     10.37644         1.697748     -1.347267      1.681975
Ti       9.76763      2.02588      2.10841        -0.079729      1.055963      1.304806
Ti       9.63932      1.90394     14.72655         2.461512     -0.224403     -1.807087
Ti       9.52234     13.61511      1.90096         0.763328     -2.853506      1.990867
Ti       9.87199     13.62639     14.61949        -2.154897     -1.515213      0.302056
Ti       9.72174      2.10722      5.96491        -1.499887     -3.249268      4.302916
Ti       9.79476     13.71505      6.46645        -0.032403      0.119163     -1.360237
Ti       9.81547      1.96683     10.80073         0.104366     -0.394778     -1.587474
Ti       9.94263     13.62694     10.40931        -0.392317      1.354334      1.200775
Ti       9.74903      5.80371      1.98880        -0.605428      0.288779      1.751393
Ti       9.75772      5.66766     14.68420        -0.766857      0.259083     -1.348006
Ti       9.67334      5.66475      6.33631         0.739423      3.475696     -0.487854
Ti       9.65822      5.88253     10.60721         0.652717     -0.150506     -0.005930
Ti       9.71708      9.82898      2.08913         2.422713     -0.684536     -0.464278
Ti       9.88601      9.88437     14.41642        -2.249331      0.457078      0.289337
Ti       9.68418     10.07388      6.12593         1.212323     -1.895831      2.986212
Ti       9.77261      9.84715     10.43044        -1.075211     -0.911229     -0.103521
O       2.04956      1.89249      0.05197        -0.931478      0.506375      2.703915
O       1.97864      1.95797     12.73558        -0.270028     -0.356969     -1.416150
O       1.84608     13.33098      0.45598         0.970598      0.935854     -0.479010
O       1.95803     13.53091     12.96097        -0.130968     -0.339130     -0.626399
O      13.68833      1.76555      0.42702         0.281491     -0.115840     -2.307598
O      13.57770      1.80255     12.90894         1.080748     -0.068436      0.007333
O      14.03002     13.66819      0.35682        -1.760320      0.126651      2.478758
O      13.66787     13.64140     13.15003        -0.123293      0.192540     -3.720063
O       1.75743      2.04589      4.54038         0.134629     -0.807355     -0.482153
O       2.08507     13.92002      4.49767         0.058932     -1.190737     -0.212244
O      13.44951      1.94137      4.49609         0.288212      0.441449      1.826030
O      13.52168     13.39295      4.66165        -0.067510      0.823147     -0.789741
O       2.28815      2.15597      8.80240        -0.910659     -1.492049     -0.179102
O       1.82173     13.24898      8.42404         0.560887      0.947477      0.564161
O      13.58516      1.78014      8.66942         0.305288      0.427926      0.467093
O      13.44978     13.58511      8.74880         1.364645     -0.655194     -2.200235
O       2.24320      5.81365      0.36487        -1.126595      0.547287      1.532914
O       2.01357      6.09165     12.72137        -0.564519     -1.063385     -0.855768
O      13.25031      5.78722      0.28763         1.390624     -0.198039     -0.207352
O      13.81606      5.38428     12.83687        -0.062591      2.130825      1.479345
O       2.06755      5.73006      4.44175        -1.011570      0.004136      0.973713
O      13.87007      5.63489      4.79658        -0.937663      0.145300     -1.210497
O       1.90365      6.02972      8.65710        -0.135266     -0.374149     -2.067557
O      13.47177      5.66844      8.69212         0.127458      0.781379     -3.402380
O       1.86574      9.53720     16.57349         0.356319     -0.331510      2.313823
O       1.85828      9.60766     12.69583        -0.005703      1.148821      0.052283
O      13.96793      9.81500      0.38019        -0.731081     -0.266953      0.186028
O      13.66533      9.27958     12.92208         0.015263      1.872630     -1.735419
O       2.17035      9.34022      4.27865        -0.100726      1.299504      0.496340
O      13.71097      9.65501      4.31939        -0.870287      0.308658      1.196499
O       1.90336      9.68119      8.34767        -0.841392      0.694117      2.183555
O      13.90094      9.82650      8.77262        -1.026686     -0.529562     -0.576695
O       5.70202      1.79886      0.23156         1.050756      0.621611      0.484248
O       5.76070      1.91549     12.80129         0.574192      0.070929     -0.276662
O       5.80248     13.72412      0.06926         0.880369     -0.497339      3.825165
O       6.09203     13.56597     12.93670        -2.479042      0.579100     -2.954027
O       5.81368      1.87376      4.44128         0.184950     -0.213955     -0.442592
O       6.14687     13.58535      4.51263        -0.508852      0.263988     -1.683847
O       5.76404      1.80864      8.82375         0.316875      0.145658      0.633963
O       6.07325     13.48161      8.55371        -2.321879      0.868005      2.042450
O       5.84784      5.63086      0.25961         0.022650      0.034972      1.330420
O       6.04992      6.02234     12.80710        -0.887648     -0.221798      0.673397
O       6.18417      5.98101      4.66536        -0.691110     -0.666211     -0.402770
O       5.79967      5.55752      8.50323         0.333378      0.638829      1.047450
O       6.00886      9.77988      0.34216        -0.723587     -1.077369      1.241869
O       5.89883      9.69629     12.70550         0.330076     -0.506124     -2.456431
O       5.77896      9.51405      4.57248         0.431883      0.815286     -0.434980
O       5.92767      9.96038      8.58547        -0.291533      0.179505     -0.400179
O       9.68578      1.75801      0.41882         0.949880     -1.061583     -2.433473
O       9.78417      2.15838     12.79521        -0.369058     -0.057100      2.557583
O       9.58623     13.20616      0.14048         0.599119      2.085193      1.080294
O      10.11432     13.44133     12.89746        -0.171475      0.254644     -1.730063
O       9.79512      2.14374      4.24094        -0.259273     -0.139720     -1.739825
O       9.64573     13.39107      4.52761         0.083754      0.547189      1.146786
O       9.93979      1.95495      8.88043        -1.749244     -0.426246      0.267519
O       9.72305     14.06607      8.63963        -1.382912     -1.043432      0.695567
O      10.07622      5.83659      0.20265        -1.227152     -0.351062      1.315350
O       9.37378      5.63312     12.81583         0.621293     -0.144728     -0.090325
O       9.57672      5.51543      4.59774         0.325020      0.249990     -1.586418
O       9.79007      5.63908      8.70377        -0.159364      0.730838      0.593202
O       9.98187      9.83345      0.26188        -0.725209     -0.274447      0.826267
O       9.81617      9.92852     12.59995         0.963546      0.226262      0.465693
O       9.44368      9.84708      4.39977         1.009948      0.136845     -1.144162
O       9.82001      9.85751      8.63764        -0.139727     -0.726522      0.312649
O       3.88104      2.07226      2.14571        -0.372677     -0.499671      0.935083
O       3.95455      1.79967     14.80704        -2.181480      0.372633     -0.371126
O       3.94391     13.59858      2.50268         0.810015     -0.340780     -0.198617
O       4.09263     13.64345     14.99943        -2.582351     -1.001756     -1.245089
O      15.57364      1.67908      2.49173         2.019608      0.432411     -0.595600
O       0.11602      2.00229     14.72923        -2.203003      0.237935      0.165363
O       0.07650     13.79353      2.67515        -0.915458     -0.939369     -0.708389
O       0.10643     13.61796     15.16274         1.573500     -0.715822     -0.838281
O       3.75553      1.78905      6.45740         2.068816     -0.933976      0.403351
O       3.96320     13.85727      6.48217         0.510921     -1.419503     -0.592193
O       0.04952      2.17921      7.00468        -0.916087     -1.227283     -0.611228
O       0.05440     13.43793      6.32481        -0.307884     -0.278029      0.161938
O       3.96633      1.95723     11.06370        -0.035994     -0.759878     -0.948531
O       3.79539     13.27578     10.58558         0.597815      1.112732     -0.480403
O      15.60269      1.47121     10.61844         0.454128      2.020336      0.362548
O      15.54453     13.57746     10.62924         0.266964      0.482482      0.035272
O       4.04223      5.48427      2.53806        -0.946467      1.754239     -0.475573
O       3.85848      6.06637     14.87631         1.272607     -0.854907     -0.626091
O       0.01654      5.92845      2.53790        -1.254109     -0.412801     -0.832406
O      15.54867      5.78107     15.07215        -0.406698      0.004925     -0.551642
O       3.79389      5.81575      6.54956         1.380993     -0.154314     -0.154851
O      15.56813      5.69118      6.62498        -0.980656     -0.031099      0.723653
O       3.80748      6.06698     10.65920         4.694550      0.363377     -0.108296
O       0.17530      5.83057     10.55203        -4.256741      0.046397      0.317873
O       3.87002      9.38323      1.92719        -0.301114      2.091302      2.337112
O       4.07262      9.84571     14.45152        -1.223378     -0.830268      1.660478
O       0.01641      9.54966      2.49074         1.185577      0.303671     -0.323815
O       0.09695      9.63409     14.72768        -2.702107      0.488680     -0.156636
O       3.81788      9.64223      6.74724         2.840495      0.722010     -1.092740
O      15.50463      9.58622      6.40465        -0.128400      0.972151     -0.304542
O       3.66775      9.80607     10.72130         3.736019      0.678273     -0.676850
O       0.04041      9.82840     10.74522        -1.949472     -0.181796     -0.031347
O       7.78542      2.06828      2.00900         0.225578     -1.343726      1.439305
O       7.96152      2.07692     15.10102        -3.194767     -0.270018     -0.399726
O       7.64601     13.47946      2.28429         0.509281     -0.408182     -0.018799
O       7.88273     13.49383     14.56608         1.963460      0.480536      0.956968
O       7.77893      2.03843      6.47882         1.418716     -0.306001     -0.388801
O       7.80912     13.29004      6.79977        -0.534225      1.272503     -1.608859
O       7.76754      1.85315     10.98014        -1.207994      0.257112     -1.142416
O       7.68244     13.51875     10.78290         1.071836      1.116454     -0.845778
O       7.87126      5.68608      2.68741         1.048745      0.326463     -1.892985
O       7.89063      5.90558     14.95420        -1.300142     -0.637595      0.716478
O       7.89492      5.76887      6.76585        -1.522929     -1.166415     -0.105850
O       7.71044      5.78439     10.53368         0.136331      0.113132     -0.082264
O       7.92574      9.82622      2.07572        -2.702763     -1.340615      1.273426
O       7.93349      9.77404     14.78364         0.405705     -1.137943      0.602404
O       7.88130     10.10847      6.53297        -2.026020     -0.363830      0.219976
O       7.82735      9.79240     10.74423        -0.672687      0.375914     -0.985804
O      11.77298      1.98908      2.29629        -1.832139      0.002747      0.002945
O      11.68846      1.69353     15.03927         0.278133     -0.544921      0.035473
O      11.57329     13.65081      2.42184         0.736394     -0.127767     -0.812625
O      11.80871     13.81636     15.07506        -0.549924     -0.723760      0.053075
O      11.77655      1.67807      6.71170        -2.930797      0.752402     -0.740257
O      11.57924     13.73686      6.83532         0.765791     -0.083063     -1.057130
O      11.64694      1.71702     10.82230         2.142658      1.935274     -0.333429
O      11.74282     13.85561     10.56205        -1.101672     -1.277597      1.097266
O      11.76289      5.42188      2.42753         0.297382      2.232005     -1.294517
O      11.51866      5.76806     14.58326         3.387870     -0.818218     -0.244525
O      11.64904      5.96956      6.32726         0.386764     -0.015784      0.982196
O      11.57928      5.81760     11.03815         0.986127      0.574617     -1.405091
O      11.71411      9.67826      2.29525         1.470410      0.090292      0.524844
O      11.67793      9.84921     14.88756         2.139002     -0.162855     -0.464930
O      11.58878      9.60567      6.57919         0.590313      0.875623     -0.736991
O      11.71712      9.64644     10.60296         0.757588     -0.205512      0.428421
O       2.01218      3.88573      2.33078        -1.452940     -1.312589     -0.366799
O       1.90645      3.98775     14.91144         0.427571     -0.910783     -0.484524
O       2.09268      0.01114      2.54671        -0.229988      0.189871     -0.972161
O       2.00697      0.01981     14.66916         0.042271     -1.000878      0.557846
O      14.11544      3.79514      2.30184        -1.759839      1.771065     -0.200520
O      13.50879      3.69169     14.85909         0.741247      1.461619      0.985242
O      13.66972     15.56247      2.83575        -1.023893     -1.444681     -1.615621
O      14.15187      0.00902     15.03157        -1.586458     -0.000543     -0.329428
O       2.11911      3.61695      6.63845        -0.775368      4.428968      0.269141
O       1.83179     15.56266      6.50285         0.236463     -1.010753      1.127223
O      13.26368      3.83863      6.91993         2.944921      0.440123     -2.316599
O      13.97656     15.51160      6.70609        -0.700288      0.034800     -0.463600
O       2.07452      4.17681     10.60268         0.170866     -3.722758      0.754479
O       2.12658     15.46344     10.52416         0.108021      0.053678      0.194508
O      13.71531      3.85482     10.94731        -0.436434     -0.871694     -2.000026
O      13.48924     15.55688     10.67170         1.091174     -0.621902      0.652283
O       2.08641      7.64177      2.40849         0.149652      3.712355      0.029102
O       1.98993      7.73075     14.61681        -0.516876      0.573871      0.915389
O      13.82006      7.72742      2.40529        -1.461701     -0.534561     -0.330696
O      13.57113      7.73491     15.12484         0.461777     -0.191000     -0.625333
O       2.00286      7.74304      6.49842        -0.470915     -0.096349     -0.660732
O      13.56488      7.89775      6.63873         0.149160     -2.023828      0.209467
O       1.80232      7.88954     10.78766         0.074076      0.810398     -0.853706
O      13.76894      7.65104     10.85139        -0.624265      0.293307     -0.785682
O       1.87626     11.69552      2.68139         0.696397     -1.551334     -0.520512
O       2.12584     11.51027     14.90900        -0.185722      3.005997     -0.265004
O      13.81734     11.72780      2.47152        -0.553918      0.122235     -0.604050
O      13.77096     11.77850     14.92639        -0.184855     -2.758110      0.177130
O       2.08743     11.61548      6.23589         0.169254      0.219558     -0.411982
O      13.48716     11.64126      6.39568         0.043766     -0.481675      1.178148
O       1.60048     11.68571     10.70510         1.403307      0.170859     -0.272695
O      13.55732     11.56425     10.70823         0.156974      1.877159      0.835003
O       5.93060      3.83141      2.51084         0.539891     -1.257468     -0.121774
O       5.78201      3.99629     14.61678         0.077206     -1.711235      0.360963
O       5.78365     15.56735      2.45648         0.364573     -0.214338     -0.711333
O       6.02524     15.58837     14.77217        -0.399603      1.358115      0.073722
O       5.81254      3.73908      6.48937        -0.459725      0.780786     -0.078557
O       5.92310     15.58309      6.51517         0.766216     -0.972410      0.154822
O       5.62034      4.01162     10.77539         0.950812     -2.313429     -0.323053
O       5.75094     15.47379     10.86963        -0.113593     -0.032546     -0.678179
O       5.82448      7.54426      2.26543         0.870530      3.017268      0.480217
O       6.10760      7.83431     15.11368        -0.844280     -0.149622     -0.857169
O       5.89787      7.75494      6.74771         0.100630      0.367987      0.011412
O       5.89771      7.86274     10.49247        -0.305902     -0.031179      0.342507
O       5.82483     11.59640      2.25357        -0.102724     -0.116435      0.447279
O       6.09382     11.58300     14.81239        -1.043019      0.095658      0.635692
O       5.52642     11.59425      6.49439         0.518506      1.693978     -0.376991
O       5.94196     11.62952     10.84908        -1.974934      0.894550     -1.658952
O       9.69743      3.84286      1.87170         0.518745     -0.109211      1.148878
O       9.78459      3.69929     15.42612         0.437807      1.088695     -1.485937
O       9.28177     15.31729      2.17655         1.465249      3.180498      0.606669
O       9.52264     15.51654     14.79798         1.074451      0.607265      1.052388
O       9.92864      3.89272      6.53089         0.089605     -3.044391      0.288024
O       9.75520      0.21976      6.57307        -0.900690     -0.748140     -0.644444
O       9.58739      3.88769     10.74760        -0.144552      0.344748      0.196293
O       9.85768      0.09272     11.15026        -1.662704     -2.076066     -1.045704
O       9.87953      7.62255      2.48445        -0.091948      0.284724     -0.432081
O       9.87441      7.61684     14.93375        -1.335537      1.422276     -1.177158
O       9.53820      7.78828      6.51007         0.131185      0.287985     -0.158186
O       9.55626      7.82673     10.87367         1.116249     -1.085190     -1.037441
O       9.81081     11.56969      2.33000         0.108588      2.123602      0.162956
O       9.69611     11.66282     14.91037         1.506976      0.280001     -0.761036
O       9.92371     11.80931      6.65194         0.213072     -0.555742     -0.423522
O       9.92155     11.82851     10.39789         0.021129     -0.199853      0.714447
