  # total energy = -7883.70058325 
CRSYTAL
PRIMVEC
    15.464    0.0000000000000000    0.0000000000000000
     0.0000000000000000   15.464    0.0000000000000000
     0.0000000000000000    0.0000000000000000   17.350608
PRESSURE
-1.41972 -1.26046 4.23326 -0.15016 0.027023 0.006686
PRIMCOORD
320 1
Pb       3.89503      3.83743      4.33894        -0.165957      0.192815     -0.613160
Pb       3.89229      3.81942     17.27583         0.102011      0.227586     -0.372360
Pb       3.83994      0.03555      4.29408        -0.173894     -0.238414     -0.278338
Pb       3.88934      0.01507     17.30818         0.023051     -0.242552     -0.461735
Pb       0.01925      3.83862      4.35117         0.097734     -0.164387     -0.639874
Pb      15.43505      3.81145     17.31452        -0.102381     -0.049920     -0.517345
Pb      15.41078     15.43626      4.24746         0.047786      0.163945     -0.157306
Pb      15.43720     15.45536     17.32596        -0.355423     -0.097025     -0.285754
Pb       3.83516      3.87073      8.63253         0.131289     -0.032969     -0.149145
Pb       3.86022     15.42313      8.61150        -0.071717      0.102237     -0.166370
Pb      15.43920      3.82704      8.61628        -0.308557      0.037225     -0.271116
Pb      15.43352     15.43862      8.63425        -0.389589      0.024994     -0.480006
Pb       3.81208      3.82169     12.96917         0.390689      0.165891     -0.859289
Pb       3.86279     15.41338     13.00331        -0.049697     -0.336458     -0.646793
Pb       0.00973      3.88702     12.97186        -0.377360     -0.222741     -0.323080
Pb       0.01143      0.01406     12.97267        -0.285829     -0.082507     -0.557991
Pb       3.81548      7.74174      4.28830         0.098492      0.096922     -0.681849
Pb       3.79756      7.69570     17.34144         0.388143      0.079903     -0.912011
Pb      15.41367      7.72279      4.29155        -0.108024     -0.175014     -0.312318
Pb      15.43275      7.70924     17.30995         0.070545      0.067186     -0.702039
Pb       3.87936      7.74573      8.65181        -0.097966      0.017532     -0.455886
Pb       0.02730      7.68572      8.69734         0.221715     -0.114892     -1.206229
Pb       3.84229      7.71135     12.97379         0.382151     -0.334735     -0.443357
Pb       0.01252      7.74712     12.95310        -0.151175      0.072020     -0.047718
Pb       3.86418     11.60439      4.32095         0.081281     -0.232717     -0.881966
Pb       3.88745     11.57243     17.31554        -0.357374     -0.124001     -0.400426
Pb      15.40607     11.60942      4.30709         0.003645     -0.442065     -0.316316
Pb      15.44788     11.60035     17.31264         0.202901     -0.207573     -0.492382
Pb       3.85255     11.59091      8.67453        -0.183708     -0.042264     -0.395806
Pb      15.40538     11.57535      8.62686         0.175336     -0.033735     -0.866961
Pb       3.83690     11.54017     12.99551        -0.203057      0.663540     -0.398854
Pb      15.44533     11.61623     12.93733         0.048593     -0.290185     -0.582763
Pb       7.71366      3.83266      4.34332        -0.091345     -0.204249     -0.418239
Pb       7.73737      3.83472     17.31366        -0.221074      0.384710     -0.189430
Pb       7.75161     15.43212      4.29867        -0.103339      0.426267     -0.621301
Pb       7.69282      0.00050      0.00082         0.004870     -0.308965     -0.563155
Pb       7.74543      3.88357      8.60586        -0.416953     -0.389717      0.012488
Pb       7.72668      0.00598      8.63854        -0.096944      0.247162     -0.755429
Pb       7.73276      3.83657     12.98183        -0.261376     -0.072779     -0.617291
Pb       7.77534     15.46239     13.01203        -0.055515     -0.162824     -0.376849
Pb       7.71873      7.74069      4.31263        -0.085863      0.029533     -0.468446
Pb       7.74538      7.71669     17.33912        -0.252661      0.018920     -0.730879
Pb       7.74667      7.70858      8.65797        -0.280407     -0.059863     -0.335768
Pb       7.72603      7.70320     12.99980        -0.698467      0.100843     -0.585230
Pb       7.72377     11.60768      4.32533        -0.033247     -0.299674     -0.825599
Pb       7.70107     11.55147     17.31499         0.086647      0.094842     -0.303313
Pb       7.68824     11.61094      8.60884         0.330431     -0.175764     -0.428640
Pb       7.72523     11.54629     12.98264         0.113543     -0.004595     -0.530013
Pb      11.53159      3.83338      4.36712        -0.101069      0.244751     -1.014077
Pb      11.54598      3.86260     17.32411         0.211141      0.129521     -0.548836
Pb      11.59381     15.41959      4.32671         0.078536      0.031782     -0.822821
Pb      11.56496     15.45912      0.00019         0.032005      0.236477     -0.489414
Pb      11.58915      3.87516      8.69108         0.376522     -0.312394     -0.634819
Pb      11.53579     15.41849      8.59985         0.421709      0.129734     -0.115296
Pb      11.59023      3.86517     12.99752         0.074100     -0.020094     -0.223954
Pb      11.55452     15.41992     13.02462         0.307685      0.140388     -0.470746
Pb      11.57493      7.70603      4.28542         0.118014     -0.167330     -0.397021
Pb      11.57560      7.68562     17.30263        -0.268085      0.065271     -0.772761
Pb      11.57481      7.67988      8.69711        -0.172657      0.253188     -1.072230
Pb      11.53574      7.69066     12.99883         0.250543     -0.004960     -0.261760
Pb      11.55411     11.60048      4.30718         0.268778     -0.241827     -0.430337
Pb      11.55701     11.62554     17.29287        -0.181706     -0.500862     -0.221283
Pb      11.51912     11.56507      8.63664        -0.195195      0.105705     -0.813808
Pb      11.58540     11.61115     12.92266        -0.106637     -0.312636     -0.358296
Ti       1.88009      1.91983      2.27936        -0.503379     -0.078943      2.006106
Ti       1.93871      1.81652     15.30802        -0.471254      0.988973      1.553289
Ti       1.90298     13.49979      2.29263         0.072837      0.029167      1.505840
Ti       1.85389     13.50590     15.30078         0.357128     -0.868463      1.676988
Ti      13.44058      1.92988      2.29834         0.889872     -0.747194      1.651771
Ti      13.51733      1.85239     15.30675        -0.309248      0.834550      0.624287
Ti      13.49832     13.47611      2.28332         0.414829      0.477161      2.065363
Ti      13.44270     13.47378     15.31200         0.410275      0.598240      1.373828
Ti       1.88349      1.84557      6.70225         0.013766      0.451004      0.810419
Ti       1.94144     13.47392      6.56491        -0.845353      0.235136      2.153981
Ti      13.45582      1.92503      6.55113         0.584410     -0.648433      2.220436
Ti      13.51272     13.46260      6.62178        -0.171685      1.163784      1.324803
Ti       1.93370      1.93994     10.98953         0.164445     -0.918581      1.574481
Ti       1.90693     13.58219     10.87064         0.483588     -0.827897      3.060691
Ti      13.44128      1.93404     10.99620         0.372303     -0.366174      1.048209
Ti      13.46998     13.50013     10.97355         0.201362      0.456526      1.644127
Ti       1.92531      5.77331      2.27653        -0.001593     -0.301843      1.780092
Ti       1.91905      5.67655     15.29294        -0.129146      0.778855      1.229233
Ti      13.49448      5.67799      2.20784        -0.162377      0.727474      1.923471
Ti      13.56830      5.78031     15.31658        -0.717034     -0.100148      1.535569
Ti       1.94919      5.72571      6.60427        -0.552881      1.148847      2.515156
Ti      13.49276      5.73422      6.54872         0.304923      0.914291      1.498612
Ti       1.84236      5.80634     10.90844         1.420331     -0.027981      1.000041
Ti      13.49544      5.86652     10.98032        -0.109844     -1.142935      1.022363
Ti       1.89719      9.64289      2.28291         0.085314     -0.026011      1.232465
Ti       1.90847      9.56583     15.26310        -0.255717      0.813976      1.533330
Ti      13.50002      9.59373      2.26218         0.343273      0.287708      2.128239
Ti      13.48658      9.64904     15.31347        -0.102861     -0.420384      1.468825
Ti       1.90304      9.64039      6.63088        -0.117044     -0.411541      0.923911
Ti      13.42489      9.63989      6.63081         0.611497     -0.404450      0.515440
Ti       1.93448      9.67447     10.96419         0.036764      0.161056      1.637544
Ti      13.45606      9.59083     10.87575        -0.017871      1.084251      2.730157
Ti       5.70352      1.95942      2.28232         1.115982     -0.103882      1.647736
Ti       5.82683      1.92396     15.23890        -0.060633      0.424282      1.834143
Ti       5.78320     13.53671      2.29628         0.012759     -0.391197      1.195254
Ti       5.74458     13.52053     15.29602         0.651417      0.142061      2.354492
Ti       5.79116      1.93698      6.64285        -0.013074     -0.607681      1.250132
Ti       5.73718     13.48293      6.62392         0.154286      0.694378      1.363186
Ti       5.83223      1.88085     10.91184        -0.426053      0.814703      2.306541
Ti       5.82560     13.57893     10.92341        -1.281382     -0.629321      1.683995
Ti       5.83838      5.77440      2.30846        -0.782629     -0.083324      0.986098
Ti       5.78531      5.77760     15.25114        -0.156463      0.852059      1.994100
Ti       5.83362      5.76502      6.62507        -0.277337      0.462523      0.939015
Ti       5.79859      5.78237     10.92250        -0.405093     -0.328362      0.761629
Ti       5.86150      9.62093      2.26642        -0.836456      0.259706      0.358690
Ti       5.70785      9.72942     15.23885         0.728704     -1.500460      1.898650
Ti       5.86276      9.67762      6.67163        -1.198042     -0.954596      0.339118
Ti       5.70234      9.72141     10.90729         0.956035     -1.430994      1.648091
Ti       9.59749      1.92564      2.19785         0.061230     -0.045651      2.246993
Ti       9.64653      1.95104     15.31990         0.585212     -0.487755      1.607850
Ti       9.65128     13.54030      2.27281         0.045788     -0.376946      1.555399
Ti       9.62990     13.51723     15.35622        -0.391367      0.247566      1.532070
Ti       9.65700      1.89980      6.57001        -0.742856     -0.071678      2.324352
Ti       9.58132     13.56590      6.56396         0.709317     -0.896814      1.779080
Ti       9.65548      1.87506     10.94286         0.066045      0.002256      1.573516
Ti       9.62788     13.50882     10.90735         0.412851     -0.342121      2.316671
Ti       9.59600      5.75829      2.34231         0.924709      0.026183      0.737089
Ti       9.60352      5.75886     15.29067         0.937079      0.216609      2.452563
Ti       9.62374      5.70005      6.60788         0.635759      0.431741      0.065794
Ti       9.57440      5.73240     10.95104         0.829541      0.006132      2.221202
Ti       9.74159      9.64705      2.24313        -1.006113     -0.294726      1.233482
Ti       9.58844      9.65899     15.23604         0.984435     -0.106785      2.321926
Ti       9.59940      9.60644      6.59515         0.896429      0.701463      2.380811
Ti       9.59544      9.55593     10.92317         0.333215      0.716953      2.291272
O       1.86202      1.89054      0.57074         0.283941     -0.018969     -1.505990
O       1.88325      1.87789     13.60997         0.087114      0.357133     -2.175088
O       1.91185     13.48699      0.57776        -0.022806      0.183298     -1.207822
O       2.03049     13.50399     13.62284        -0.386193     -0.075373     -1.888791
O      13.59878      1.87685      0.61175        -0.069082      0.047728     -2.057051
O      13.39179      1.91192     13.56783         0.437731     -0.106484     -0.623615
O      13.62321     13.53946      0.60304        -0.273509     -0.218698     -2.032301
O      13.32904     13.53041     13.60580         0.438079     -0.404219     -1.453328
O       1.88309      1.91241      4.99789         0.233420      0.078958     -1.200737
O       2.00994     13.55896      4.87116         0.067011     -0.185622     -1.665964
O      13.57346      1.93164      4.85225        -0.468227     -0.142666     -1.640258
O      13.50379     13.64328      4.91319        -0.185837     -0.402688     -1.285650
O       1.95556      1.83088      9.30618        -0.089022      0.168465     -2.379113
O       1.92741     13.57725      9.18133        -0.034427     -0.166718     -1.683207
O      13.40109      1.96148      9.28292         0.053954      0.000090     -1.298889
O      13.46379     13.60553      9.28927         0.113980     -0.301543     -2.169951
O       1.81640      5.75862      0.56280         0.386802      0.170824     -1.207386
O       1.87631      5.64738     13.56522        -0.014745     -0.112191     -1.369622
O      13.51769      5.70328      0.47793         0.097037      0.375481     -0.655892
O      13.54324      5.84238     13.61936         0.078518     -0.181470     -2.456245
O       1.88854      5.77579      4.90944         0.239814     -0.092269     -1.447753
O      13.56431      5.77790      4.85191        -0.284402     -0.349772     -1.405882
O       1.90363      5.79146      9.19130        -0.303658     -0.153272     -1.001535
O      13.60140      5.71820      9.26600        -0.582116      0.354982     -1.386033
O       1.85961      9.72372      0.55484         0.346644     -0.461559     -0.936232
O       2.14566      9.69615     13.56877        -0.864898     -0.249736     -1.743588
O      13.55170      9.63650      0.56682        -0.221202     -0.168239     -1.704645
O      13.50880      9.67609     13.62327         0.002582      0.101647     -1.976339
O       1.83654      9.60783      4.90678         0.164975     -0.087078     -0.912139
O      13.52769      9.77169      4.90302        -0.233200     -0.353654     -0.517479
O       2.00715      9.65883      9.27401        -0.214377      0.141695     -2.094426
O      13.38604      9.61602      9.18484         0.343658     -0.051128     -2.116586
O       5.73236      2.06383      0.57463        -0.265544     -0.211964     -1.593055
O       5.92209      1.85129     13.55165        -0.095720      0.152353     -1.745464
O       5.91928     13.57810      0.59215        -0.622986     -0.203235     -1.502847
O       5.86331     13.43083     13.62783         0.109636      0.276652     -2.296379
O       5.77599      1.96187      4.93547        -0.146368     -0.160717     -1.590462
O       5.66240     13.45333      4.90631         0.319060      0.048683     -1.297130
O       5.82368      1.97633      9.22112         0.033938     -0.418524     -2.180354
O       5.65144     13.52446      9.20481         0.448604     -0.108077     -0.899750
O       5.83283      5.62258      0.59526        -0.103771      0.264635     -1.417444
O       5.79535      5.78162     13.56210         0.174032     -0.067118     -2.177559
O       5.92183      5.71571      4.89006        -0.634848      0.304177     -0.218805
O       6.01624      5.67066      9.18318        -0.475723      0.323757     -0.517256
O       5.74590      9.71085      0.51872         0.071061     -0.192636     -0.505434
O       5.77544      9.59481     13.54083         0.037509      0.215097     -1.654228
O       5.98940      9.59630      4.93732        -0.295671      0.182777     -0.884404
O       5.72337      9.63836      9.18449         0.160168      0.207259     -1.232154
O       9.73184      1.86150      0.49256        -0.341841      0.271034     -1.154699
O       9.76725      1.91693     13.61332        -0.459160     -0.081954     -1.528745
O       9.70692     13.53772      0.56875        -0.151325      0.023600     -1.157805
O       9.55339     13.55169     13.64719         0.062725     -0.195062     -1.530271
O       9.55269      1.85332      4.89811         0.172469     -0.141746     -2.724066
O       9.53115     13.63224      4.84845         0.297088     -0.194160     -1.312760
O       9.60447      1.78861      9.23432         0.094522      0.332877     -1.399725
O       9.71026     13.70546      9.22729        -0.385349     -0.647785     -2.026781
O       9.66174      5.69709      0.62584        -0.296401      0.060613     -1.300043
O       9.70296      5.80138     13.60060        -0.382702      0.049113     -2.116803
O       9.61153      5.60517      4.86385         0.188307      0.533351     -0.475383
O       9.60317      5.74382      9.24788         0.186849     -0.301273     -2.045286
O       9.77489      9.61884      0.53270        -0.246830      0.075938     -1.114301
O       9.67406      9.66460     13.51989        -0.221030     -0.201361     -1.253043
O       9.52819      9.60708      4.90269         0.110492      0.017396     -1.884366
O       9.64087      9.67559      9.23768        -0.100699     -0.028758     -1.749199
O       3.82690      1.88408      2.76609        -0.027609      0.354752     -0.134617
O       3.84730      1.89561     15.69805         0.291327     -0.129175      0.177766
O       3.84587     13.53992      2.71844        -0.143703     -0.288172     -0.095702
O       3.87312     13.47576     15.73695        -0.209629      0.739165      0.322498
O      15.42579      1.90835      2.74995         0.330918      0.291000      0.002401
O      15.46207      1.95226     15.69970        -0.163421     -0.366125      0.184306
O       0.02277     13.53072      2.74907        -0.379144     -0.241119      0.007384
O      15.37787     13.51865     15.68365         0.265905     -0.030795     -0.019463
O       3.87400      1.82366      7.02245        -0.458553      0.725039      0.392848
O       3.80705     13.40922      7.10405         0.201398      0.124843     -0.307199
O      15.40836      1.92725      6.98805         0.061711      0.157968      0.655043
O      15.44465     13.54785      6.93856        -0.183862     -0.152332      0.597498
O       3.94000      1.84729     11.38905        -0.819989      0.414304      0.264771
O       3.92298     13.47467     11.53012        -0.231727      0.352670     -0.656086
O      15.44504      1.89728     11.32888         0.030609      0.018883      0.506734
O       0.00009     13.48354     11.35569         0.043795      0.000195      0.181604
O       3.88528      5.82234      2.68378        -0.528313     -0.408838      0.276944
O       3.83320      5.87160     15.60222         0.020569     -0.323060      0.702315
O       0.00175      5.75910      2.74116        -0.682436      0.112141     -0.249481
O      15.45409      5.87034     15.64984         0.378691     -0.580640      0.474138
O       3.84706      5.71577      7.03568         0.695227      0.077313     -0.088268
O      15.43294      5.90731      6.97883        -0.091858     -0.617898      0.388525
O       3.84667      5.79846     11.27426        -0.001501     -0.487113      0.246246
O      15.42365      5.82663     11.30973         0.170015     -0.629517      0.635268
O       3.87375      9.67500      2.68541        -0.544229     -0.417659      0.401838
O       3.83315      9.60048     15.60402        -0.029950      0.360663      0.952155
O      15.41805      9.58527      2.64837         0.034035     -0.280425      0.334073
O      15.44693      9.61152     15.66091        -0.077032      0.348666      0.187759
O       3.89053      9.61823      6.93982        -0.244190      0.611241      0.351349
O      15.43773      9.68318      7.04540        -0.500749     -0.507740      0.584810
O       3.86859      9.48120     11.40577        -0.199640      0.658106     -0.191962
O       0.05610      9.62496     11.43811        -0.527083      0.507253     -0.233367
O       7.66809      1.96001      2.63792         0.392958     -0.441079      0.012104
O       7.71862      2.03678     15.71631         0.015214     -0.435223     -0.047194
O       7.76527     13.43865      2.67175        -0.589898      0.294543      0.389317
O       7.72409     13.45331     15.85545        -0.209752      0.480696     -0.239684
O       7.68007      1.82424      6.95247         0.078872     -0.204426      0.685812
O       7.67932     13.44697      7.01139         0.408557      0.450987      0.167234
O       7.76283      1.92808     11.33531        -0.079581     -0.609079      0.500611
O       7.69608     13.44246     11.39144         0.221690      0.319014     -0.285653
O       7.69489      5.81864      2.75145         0.438080     -0.482470     -0.021277
O       7.70537      5.74321     15.75882        -0.056432     -0.124297     -0.075329
O       7.74655      5.79877      6.92427         0.058510      0.230940      0.739134
O       7.72851      5.72448     11.39417         0.103741      0.126441      0.297152
O       7.73460      9.54676      2.62606         0.119364      0.616739      0.144089
O       7.73942      9.74840     15.66982        -0.416967     -0.232145      0.033208
O       7.73554      9.57458      7.08899         0.107657      0.467312      0.416293
O       7.69592      9.59567     11.44796         0.086341      0.086978     -0.404780
O      11.56792      1.93759      2.68233        -0.387013     -0.439246      0.253537
O      11.64596      1.88454     15.78524        -0.533328      0.315008      0.097056
O      11.60261     13.54574      2.72890        -0.342285     -0.190291      0.179057
O      11.53516     13.55921     15.75481         0.351208     -0.199270      0.229039
O      11.50875      1.94798      6.96194         0.809109     -0.142550      0.109888
O      11.56230     13.36278      6.99316        -0.345094      1.209881      0.018475
O      11.52000      1.84312     11.34417         0.484196      0.265381      0.276008
O      11.58120     13.51955     11.38063        -0.291981     -0.454313      0.111945
O      11.56453      5.67103      2.66591         0.095232      0.317737      0.457496
O      11.51475      5.75017     15.67404         0.604219      0.260449      0.464717
O      11.54823      5.68593      6.90623        -0.111465     -0.038020      0.740809
O      11.64608      5.83119     11.42898        -0.732258      0.092616     -0.191831
O      11.57741      9.63673      2.70432         0.128360      0.031072      0.412000
O      11.51785      9.59946     15.67182         0.376989      0.109775      0.238582
O      11.52854      9.70883      6.99478         0.467319      0.063539      0.317106
O      11.54773      9.48955     11.27705         0.411934      0.480003      0.285567
O       1.90729      3.83218      2.75142         0.263146      0.064503      0.018978
O       1.95872      3.82776     15.74785        -0.212119     -0.057809     -0.024162
O       1.92414      0.01749      2.71242         0.039511     -0.423705     -0.010993
O       1.83325     15.43365     15.60768         0.454330     -0.187361      0.812611
O      13.44977      3.83856      2.59490         0.486108      0.000987      0.468520
O      13.58249      3.87337     15.67505        -0.187849     -0.547915      0.246953
O      13.57173     15.39812      2.64038        -0.453968      0.480705      0.561260
O      13.45176     15.42625     15.74008         0.556755      0.052884      0.097654
O       1.86618      3.86872      7.14846         0.235652     -0.489451     -0.256728
O       1.84961     15.43667      7.09148         0.503779     -0.310425     -0.118304
O      13.43741      3.81585      6.99112         0.409696      0.360767      0.325939
O      13.50593      0.04167      7.13057        -0.382593     -0.446445     -0.400505
O       1.99210      3.79595     11.28356        -0.391867      0.864015      0.582585
O       1.97370     15.40516     11.42373        -0.194543      0.437735      0.154559
O      13.39591      3.84739     11.30804         0.523250      0.191576      0.620647
O      13.49508     15.40783     11.44853         0.180784      0.258662      0.061947
O       1.92952      7.67211      2.72770         0.026984      0.479493     -0.035633
O       1.85832      7.69268     15.65532         0.370656      0.111385      0.414181
O      13.33972      7.69119      2.76415         0.870767     -0.297352     -0.430772
O      13.51360      7.72205     15.64184        -0.208680      0.001467      0.778000
O       1.99179      7.73303      7.14027        -0.390640     -0.266921     -0.156108
O      13.37024      7.70111      6.89308         0.100361      0.094277      0.573942
O       1.86761      7.69334     11.22853         0.074862     -0.070070      0.673201
O      13.58559      7.78363     11.38904         0.022323     -0.883560      0.035746
O       1.81722     11.52207      2.68472         0.479535      0.738061      0.317562
O       1.88628     11.61781     15.66786         0.063288     -0.673367      0.440225
O      13.53303     11.52875      2.71728        -0.194563      0.637579      0.105636
O      13.46284     11.58675     15.77606        -0.005730     -0.038872     -0.084442
O       1.77849     11.58151      7.00316         0.679678     -0.007659      0.247588
O      13.49742     11.62096      7.00488         0.321695     -0.704142      0.591050
O       2.04129     11.62934     11.28061        -0.313579     -0.464335      0.339538
O      13.52177     11.50643     11.34424        -0.114245      0.331507      0.195567
O       5.78202      3.83949      2.77373        -0.332488      0.016722      0.163798
O       5.74328      3.88347     15.58348        -0.246275     -0.587927      0.464417
O       5.80402     15.45183      2.56669        -0.124085      0.154547      0.640546
O       5.84513      0.04233     15.65778        -0.112700     -0.577734      0.515940
O       5.88395      3.86048      7.03684        -0.432779     -0.155620      0.081599
O       5.70707     15.35456      7.05926         0.370117      0.517337     -0.054962
O       5.86469      3.80286     11.30007        -0.335506      0.293664      0.690051
O       5.70290     15.41693     11.41877         1.172160      0.096728     -0.312420
O       5.76418      7.68922      2.62751         0.065487      0.388302      0.346408
O       5.78977      7.75987     15.63912         0.300664     -0.263653      0.572464
O       5.81371      7.73782      7.17659        -0.006006     -0.837151     -0.496384
O       5.79235      7.64198     11.37851         0.391206      0.311407     -0.027028
O       5.73061     11.56621      2.65527         0.442627      0.162857      0.504987
O       5.76704     11.60488     15.64876        -0.068268     -0.158609      0.482242
O       5.87082     11.58244      7.03395        -0.319766     -0.355279      0.356091
O       5.73197     11.52383     11.24458         0.232873      0.790728      0.341319
O       9.63354      3.78743      2.70634        -0.155721      0.132485      0.105826
O       9.70830      3.82274     15.73995        -0.341645      0.317107      0.046346
O       9.63171     15.45521      2.66965        -0.080420      0.054848      0.217413
O       9.64063      0.02829     15.73858        -0.326595     -0.292087      0.133084
O       9.55001      3.77057      6.92331         0.116070      1.091246      0.638178
O       9.60728     15.44134      6.99888         0.135131     -0.495943      0.186040
O       9.68670      3.84714     11.44314         0.080016     -0.248057     -0.305015
O       9.72931     15.38083     11.33638        -0.915424      0.536658      0.566992
O       9.60724      7.68478      2.63297         0.533690      0.085326      0.491456
O       9.56930      7.67975     15.80717         0.094642      0.438012     -0.442002
O       9.74282      7.75939      7.11188        -0.371838     -1.192806     -0.152439
O       9.67535      7.62332     11.25217        -0.431884      0.645827      0.556418
O       9.70446     11.54087      2.69791        -0.216354      0.519262      0.171417
O       9.68813     11.60587     15.79557        -0.025016     -0.405558     -0.345832
O       9.67253     11.59468      6.98619        -0.815732     -0.001118      0.286833
O       9.70223     11.57462     11.36083        -0.276189     -0.191064     -0.093550
