  # total energy = -7842.39474361 
CRSYTAL
PRIMVEC
    15.6080000000000005    0.0000000000000000    0.0000000000000000
     0.0000000000000000   15.6080000000000005    0.0000000000000000
     0.0000000000000000    0.0000000000000000   16.6239999999999988
PRESSURE
2.26691 1.73049 -3.06851 -0.270339 0.20805 -0.006415
PRIMCOORD
320 1
Pb       4.08882      4.11941      4.25509        -0.666558     -0.631247      0.638564
Pb       3.96767      4.05584      0.13382        -0.258118     -0.639260     -0.477546
Pb       4.08686      0.14104      4.42739         0.688216      0.228947     -0.286872
Pb       3.74505     15.47104      0.16831        -0.251106      0.962115     -0.603134
Pb       0.24175      4.01934      4.29987        -0.581647      1.069876     -0.538718
Pb       0.04018      3.82459      0.19669         0.267737      0.117446      0.444042
Pb      15.38012     15.54949      4.49061         0.787376     -0.402066     -0.776356
Pb       0.29744     15.48805      0.01341         0.539957     -0.191252      0.075288
Pb       3.88242      3.65692      8.26775         0.831822      1.054428      0.296822
Pb       3.80767      0.00933      8.49880         0.929086      0.481167      0.181037
Pb      15.38510      4.01907      8.14290         0.228733      0.498173      0.328109
Pb      15.18800      0.01505      7.95942         0.030052      0.893523      1.336364
Pb       4.01000      3.91769     12.37854        -1.057129     -0.810875      0.094742
Pb       3.78005      0.11584     12.44668         0.117087      1.014291     -0.251819
Pb       0.07812      3.67638     12.71575         0.949044      1.151750     -1.632507
Pb      15.52560     15.53905     12.22260        -0.856685      0.134904     -0.476541
Pb       3.72464      7.98828      4.25452         0.121984      0.543752      0.260830
Pb       3.63410      8.06966      0.13707         1.466432     -0.175707     -0.036067
Pb       0.00553      7.84094      4.13257        -1.121496     -0.458075     -0.446239
Pb       0.17431      7.98109      0.10014        -1.679513     -0.026858      0.678693
Pb       3.89234      7.89982      8.75655        -0.178450     -0.848493     -0.869146
Pb       0.04386      7.59380      8.53738        -0.125030     -0.980264      0.530712
Pb       3.78808      7.62744     12.81848         0.642413     -0.528311      0.063425
Pb       0.20584      7.40471     12.81156        -0.253698      0.221904     -0.489935
Pb       3.74253     11.94429      4.54093         0.084388     -1.566488     -0.139422
Pb       3.56804     11.85986      0.10161         0.934841     -0.430222      0.094031
Pb      15.54435     11.62718      4.69558         0.176027      0.236388     -2.362113
Pb      15.60199     11.87299     16.54761        -0.245301     -0.504636      0.341061
Pb       3.74278     11.67075      8.64842         1.013730     -0.677894     -0.161304
Pb      15.43067     11.24313      8.15515         0.407188      1.472416      2.518704
Pb       3.73272     11.85882     12.61348         1.588093     -0.259166     -0.786978
Pb      15.36994     11.80637     12.41230        -0.811296     -0.077589     -0.607451
Pb       7.73581      4.14619      4.08121         0.631947     -0.464436      0.044254
Pb       7.82261      3.67997     16.55954         0.404810      1.515006      0.535122
Pb       7.92997      0.05083      4.05958        -0.343515     -0.371099     -0.508140
Pb       7.66225      0.11764      0.01223         0.418351     -1.743292      0.069054
Pb       7.76231      3.97579      8.52386         0.086523      0.260789     -0.726214
Pb       7.74835      0.11250      8.31645        -0.512737      0.506181     -0.221517
Pb       7.97889      3.86474     12.59563         0.254240     -0.526919      0.563472
Pb       7.73355     15.46568     12.81619        -0.387388     -0.577499     -0.105016
Pb       7.68492      7.71599      4.00714         0.823760      0.756562     -0.686910
Pb       7.72312      7.92088     16.53318         0.161124      0.441783      0.406631
Pb       7.88319      7.80778      8.34616        -0.188402     -0.126336     -0.959548
Pb       7.58228      7.70622     12.79514        -0.229173      1.046016     -0.142601
Pb       7.59094     11.92709      4.21343         0.630428      0.469069     -0.392524
Pb       7.67187     11.47101     16.61400         0.273085      0.796310     -0.078212
Pb       7.58864     11.79745      8.45529        -0.673234     -0.892713     -0.241975
Pb       8.16863     11.89593     12.85465        -2.851223     -0.636722     -0.584231
Pb      11.96003      3.88115      4.02639        -1.577271      0.175817     -0.956479
Pb      12.03001      3.79456      0.00585        -0.928252      0.233546      1.003623
Pb      11.94892     15.31400      4.21620        -1.877260      0.092840     -0.319512
Pb      12.28118     15.51973      0.38371        -1.487671      0.196060     -0.446545
Pb      11.62862      4.11447      8.47450        -0.673365     -1.667231     -0.553705
Pb      11.50605      0.23393      8.10155        -0.037587      1.053237      0.512350
Pb      11.79977      3.73043     12.73777        -1.205334     -0.738239     -0.347563
Pb      11.68038     15.38641     12.08972        -0.348055      0.628784      0.641049
Pb      11.49013      7.55818      4.22444         0.653234      1.190847     -1.121865
Pb      12.07370      7.73049     16.62245        -0.302985      0.237302      0.599501
Pb      11.78928      7.65628      8.61027         0.004047      0.112025     -0.557837
Pb      11.60085      7.65605     12.56516         0.607916      1.106897      0.163787
Pb      11.58129     11.59241      4.29521        -0.450518      0.573106     -1.280752
Pb      11.80219     11.60416      0.04539        -0.517049     -0.680295      0.069844
Pb      11.51905     11.22753      8.20318        -0.340117      0.134294      0.240299
Pb      11.39397     11.47569     12.15987         1.045424      1.036468      0.542904
Ti       2.08474      1.97763      2.48036        -0.618439     -0.559892     -3.540873
Ti       1.84306      1.93611     14.69958         3.058913     -0.481349     -0.465031
Ti       1.92904     13.69317      2.52970        -1.643973      0.689314     -1.374546
Ti       1.87276     13.65990     14.14023        -0.401331      1.239956      4.379502
Ti      13.97776      1.97393      2.17574         0.047181      0.964308     -1.326845
Ti      13.56672      1.84494     14.37653        -0.532203     -0.115303      0.016917
Ti      13.78933     13.60498      2.03220        -1.930822     -2.912048      0.131821
Ti      13.48129     13.52408     14.48457        -0.133258      0.518048     -1.523242
Ti       1.93788      2.05505      6.11820         0.875046      0.346299      1.361818
Ti       1.93690     13.75377      6.57039        -0.617431     -0.386550     -1.121040
Ti      13.46729      2.10134      5.98903        -0.370360     -1.312648      1.708908
Ti      13.47108     13.40379      6.31221        -0.236245      1.228100     -0.247752
Ti       1.95273      2.01838     10.05597         0.187173     -1.021057      3.699770
Ti       1.93223     13.59365     10.29237        -1.970092      1.387141      0.517906
Ti      13.76334      1.98715     10.29030        -2.926551     -0.890500     -0.941690
Ti      13.39024     13.61851     10.04998         1.246918     -0.525612      1.679931
Ti       2.05987      5.88919      2.26764        -3.860787      0.236305      0.023861
Ti       1.93063      5.74394     14.93272         1.036480     -0.449459     -0.685426
Ti      13.68175      5.83302      2.25969         0.589165      2.603860     -1.063730
Ti      13.64269      5.78660     14.50467         0.306245      0.341004      2.201439
Ti       2.04615      5.89204      6.36565        -1.177943      0.377493      0.980053
Ti      13.55615      5.66823      6.11842         0.972643      2.922094      1.108304
Ti       2.14446      5.87197     10.46589        -1.067105     -0.988557     -0.509567
Ti      13.64020      5.68965     10.61635         3.271839      1.519609      0.041172
Ti       1.84608      9.92342      2.10668        -0.333897      0.302116     -0.616728
Ti       1.92324      9.84467     14.58859        -1.287668     -1.166475      1.346960
Ti      13.62270      9.83924      2.17433        -0.783817     -0.759233      0.045936
Ti      13.71674      9.70583     14.44854        -1.340679     -0.276785      1.241118
Ti       1.88897      9.70787      6.55201         2.091076      1.453081     -1.260019
Ti      13.64884      9.64248      6.27560        -1.871928     -3.550657     -0.864725
Ti       1.84563      9.82932     10.83632        -1.000656     -0.854376     -2.459087
Ti      13.56695      9.71595     10.55331         1.338565     -0.243098      0.399245
Ti       5.85375      2.06887      1.94528         0.529783     -3.120379      1.704012
Ti       5.74858      1.74517     14.58690        -0.935744      0.416505     -0.511707
Ti       5.58609     13.77076      2.17901         3.724491     -0.077412     -0.610065
Ti       5.70421     13.47186     14.75938         4.102288      1.222787     -0.533547
Ti       5.93815      2.09560      6.26614        -0.642560      0.132263      0.447635
Ti       5.75921     13.70975      6.41222         1.364476      1.198944      0.169632
Ti       5.90053      1.82721     10.50554        -2.449178      0.655472     -0.329824
Ti       5.87604     13.68560     10.45390        -0.822624     -0.738398      1.163376
Ti       5.64848      6.03123      2.04567         1.665802     -0.313215     -1.363203
Ti       5.80002      5.58375     14.50928        -0.131842      0.947876      1.550327
Ti       5.75073      6.02127      6.14223         0.763357     -1.738663      0.452231
Ti       6.12624      5.78446     10.60647        -2.542354     -0.603255     -1.468925
Ti       5.66059      9.91881      2.19499         0.400048     -1.624643     -1.799393
Ti       5.67137      9.66699     14.50317         2.807458      0.542222     -0.264784
Ti       5.81001      9.77519      6.10171        -0.994418     -0.332889     -0.330610
Ti       5.62527      9.57351     10.50331         2.143258      1.537330      1.261984
Ti       9.84206      2.05179      2.33631         0.269995      0.384353     -1.057343
Ti       9.70134      1.96522     14.86656         3.223061     -0.108045     -1.559981
Ti       9.71472     13.68919      2.06440         1.395253     -0.616015      1.671885
Ti       9.75799     13.70383     14.85845        -1.365797     -1.142042     -0.104292
Ti       9.63979      2.15023      6.15298         2.787518      0.604854      1.080186
Ti       9.66455     13.66303      6.32238         0.062115      0.435885     -3.061026
Ti       9.64210      1.80240     10.51658         2.173424      0.605059      0.152810
Ti       9.61688     13.49093     10.06688         0.330561      0.655189      1.724862
Ti       9.53098      5.82426      1.93198         0.479803     -1.967031     -1.279040
Ti       9.82117      6.01727     14.46111        -0.896683     -1.842085      1.508919
Ti       9.74705      5.94782      6.16268        -0.973422     -1.362459     -0.131859
Ti       9.89284      5.76057     10.54110        -0.917775     -0.999555      0.037908
Ti       9.72261      9.80970      2.03479         0.272496     -1.060986     -0.792156
Ti       9.80413      9.85272     14.48076         0.022547     -1.431551      1.849958
Ti       9.67265      9.68867      5.96110        -1.065692     -0.169751      0.264362
Ti       9.48286      9.48936     10.48060         1.007406      2.318816     -0.218056
O       1.84624      1.46936      0.22858         0.156101      0.998792     -1.685123
O       2.28066      2.11398     12.84261        -1.188937     -0.267563     -0.031093
O       2.21435     13.69207      0.09823        -1.598867      0.609137      0.131125
O       2.00401     13.68700     12.40905         0.135822      0.286710     -2.021569
O      13.82962      2.22518      0.25864         0.043456     -1.825096     -0.103635
O      13.71711      1.85141     12.59228         0.503334      0.746067     -1.297580
O      13.45493     13.44545      0.12900         1.293283      0.907040     -0.806145
O      13.42660     13.69716     12.41456         1.098045     -0.366705      2.088074
O       1.96000      2.11627      4.28647         0.396103     -0.355244      0.829202
O       1.81350     13.63194      4.28412         0.228922      0.098154      0.860683
O      13.76433      1.82496      4.06876        -0.477150      0.521313      1.035693
O      13.51492     13.61342      4.40648         0.967636     -0.046058      1.461893
O       1.97470      1.92857      8.34665         0.336848      0.283056     -2.822066
O       1.96975     13.54200      8.41105         0.244603     -0.080479     -1.908525
O      13.59527      2.05644      8.29700         0.477941      0.097037      0.968634
O      13.41530     13.83812      8.26151         1.065171     -0.162191     -0.063353
O       1.92999      6.32192      0.06175        -0.345467     -2.801243     -1.059566
O       2.01111      5.53133     12.65022         0.299552      1.318321     -1.580303
O      13.64420      5.91993      0.10312         0.419237     -0.512879     -0.468272
O      13.72767      5.88857     12.70082         0.168504     -0.626365     -2.964353
O       2.38696      6.04519      4.36663        -0.873341     -0.570246     -1.673349
O      14.00120      5.85979      4.23554        -1.534207     -0.630852      0.097313
O       1.95830      5.88925      8.32802        -0.034454      0.163127      0.607119
O      13.53376      5.52724      8.22000         0.864420      0.524767      0.132453
O       1.86149     10.01241     16.54379         0.036583     -0.182435     -0.234984
O       1.74400      9.63637     12.54221         0.357539     -0.020055      1.863525
O      13.40803      9.61878     16.56588         0.255688      0.551938      0.542094
O      13.83863      9.90800     12.57094        -0.688305     -0.660869     -2.279142
O       1.76888      9.67483      3.83881         0.445293      0.454784      1.161990
O      13.79372      9.55137      4.08490         0.039324      0.924916      1.447932
O       1.89162      9.98479      8.29778        -0.084201     -0.320450      1.232800
O      13.69333      9.72833      8.28640        -0.496874     -0.520389     -0.480603
O       5.81589      1.58793      0.24329        -0.190017      1.071935     -1.056678
O       5.99202      1.70942     12.73898        -0.383072      0.895711     -0.525490
O       5.71574     13.67973      0.13670        -0.548964      0.380354      1.642842
O       6.04638     13.71066     12.81526         0.012808     -0.406596     -1.066760
O       5.92115      1.89745      4.51342         0.152411     -0.007055     -1.385231
O       6.01981     13.73004      4.23402        -0.911114     -1.118522      1.045428
O       5.64446      1.61992      8.51705         1.260062      0.679606     -0.962502
O       5.98090     13.83427      8.30724        -0.187663     -0.769227      0.262031
O       5.78239      5.83134     16.55538         0.248411      0.040078      1.146301
O       5.67615      5.60601     12.44724         0.004835      0.435436      1.682956
O       5.63685      5.85629      4.20643         0.008390     -0.043939      0.249389
O       6.16125      5.88051      8.73044         0.543726      0.644509     -0.918731
O       5.86453      9.48396      0.27021         0.827886      0.303570     -0.526647
O       5.97892      9.65554     12.72588        -1.707868      0.564337     -0.434270
O       5.51523      9.93140      4.22487         1.133406     -0.584931      0.003363
O       5.62647      9.64189      8.69670         0.876369     -0.088833     -0.607003
O       9.99866      2.22101     16.54988        -0.436827     -0.518238      1.309645
O       9.60642      1.96902     12.31499        -0.534300     -0.499177      0.231000
O       9.72133     13.38985      0.34985         1.337461      0.273146     -2.937998
O       9.59420     13.48775     12.75387         1.327814      1.264257      0.421863
O       9.60096      2.28360      4.20109         0.707824     -1.096993     -0.132690
O       9.90809     13.57932      4.30129        -0.153918      0.393088      1.214836
O      10.04947      2.14718      8.28249        -1.120529     -0.948816      0.415401
O       9.57918     13.36132      8.23521         0.248880      0.135596      1.380799
O       9.31728      5.46407      0.06050         1.132112      1.582663      0.299836
O       9.91528      6.07573     12.46482         0.049212     -0.078846      1.115842
O       9.73260      5.86693      4.20185        -0.302349     -0.285291      1.569405
O       9.79028      5.83122      8.44598        -0.448825      0.433927      0.951375
O       9.54978      9.98178      0.01550         0.610650     -1.411405      1.620351
O       9.82374      9.61773     12.49045        -0.170740      0.138637      0.342032
O       9.62968      9.25149      4.16460         0.388008      1.288797      0.827125
O       9.77669      9.75741      8.44300        -0.605708     -0.524703      0.782429
O       3.84454      1.60258      2.20685         1.469404      0.193183      0.388169
O       3.90773      1.75713     14.67762         1.140469     -0.346357      0.735261
O       3.86290     14.00086      2.42262        -1.730775     -0.056683      0.023521
O       4.01006     13.60339     14.44242        -4.120883      0.204451     -0.237134
O       0.19786      2.21519      2.19363        -3.124390      0.166834      0.084257
O       0.11423      2.24779     14.36266        -1.778532     -1.180571      1.700765
O      15.38225     12.99007      2.40694         3.485139      0.986762      0.070205
O       0.10765     13.53810     14.55859        -1.111065     -0.089588     -0.178455
O       3.96786      2.37028      6.21907        -0.228612     -1.447480      0.474136
O       3.87100     13.40064      6.30935         0.048479      0.404647      0.344193
O       0.12929      1.98474      6.29863        -0.142516     -1.016813     -0.168857
O      15.55331     14.00403      6.44412         0.344492     -1.599091     -0.700451
O       3.98531      1.80703     10.33167        -1.456446      0.179608      0.682316
O       3.94509     13.61730     10.14597        -0.183519      0.397992      0.663256
O       0.02634      1.89438     10.45761        -0.049518     -0.253665      0.245066
O       0.03585     13.54292     10.11639         0.231608      0.832681      1.152416
O       3.78795      5.74990      1.91183         2.774328     -0.032506      0.106556
O       3.85914      5.55020     14.67915         0.510933      0.995164     -0.638001
O       0.16895      5.72558      2.45643         1.111162     -0.332712     -0.597300
O       0.09395      5.68728     14.45622        -0.723784      0.021915      0.580856
O       3.92838      5.68256      6.46184         1.437401      0.113510      0.250416
O       0.07093      5.86524      6.39826         0.867053      0.040403     -0.101808
O       3.93505      5.95592     10.23243        -1.389496     -0.436315      0.954649
O      15.56998      5.85795     10.32562         0.011428      0.039231     -0.022594
O       3.84336      9.89963      1.79586        -1.536644     -0.767740      0.893895
O       3.89868      9.65433     14.85815        -1.388765      0.824233     -1.220057
O      15.50109      9.89562      1.87931         2.136031      0.774489     -0.318141
O      15.48891      9.77904     14.77123         2.340636      0.188799     -0.199055
O       3.90855      9.96356      6.31548        -1.297224      0.072641     -0.084013
O      15.55712      9.69231      6.16114         0.086133     -0.282096      0.656730
O       3.79757      9.86666     10.57946        -0.511473     -0.293276      0.153534
O       0.01150     10.13741     10.44765        -0.485260     -0.916158     -0.434721
O       7.84431      2.07357      2.15464        -0.773406     -0.227253     -0.191369
O       7.93725      1.90438     14.95926        -2.340241     -0.017636     -0.756008
O       8.00364     13.36337      2.22655        -2.872617      0.266112      0.977726
O       7.85437     13.52843     15.03075         0.068689     -0.421557     -0.495740
O       7.96169      1.83905      6.37641        -4.284198     -0.589651      0.807380
O       7.80726     13.64409      6.28564        -0.454971      0.138738     -0.035973
O       7.64411      1.89149     10.24355         3.959362      0.461662     -0.481716
O       7.67702     13.60336     10.34050         3.379609      0.425645     -0.649233
O       7.60173      5.78980      2.23962        -0.843769     -0.323305      0.303136
O       7.81192      5.87729     14.37447         0.092917      0.269439     -0.205817
O       7.79626      6.02335      6.22307         0.265006      0.515118      0.275182
O       7.87754      5.67605     10.95188         1.423055      0.836106     -1.104744
O       7.88504      9.35264      2.20764        -1.675916      1.311504      0.091073
O       7.76816      9.59302     14.60613        -0.087881     -0.923658      0.487987
O       7.68978      9.47037      6.23311         0.739641     -0.361481      0.250780
O       7.73287      9.38278     10.61730        -0.360540      0.178866     -0.852151
O      11.73861      2.29274      1.93586         0.424474     -2.004122      1.525637
O      11.58902      1.95044     14.24804         1.189953     -0.326035      0.717884
O      11.97190     13.94272      2.47342        -1.909753     -0.623469     -1.463838
O      11.70771     13.75671     14.84407         1.198677     -0.675369     -0.418667
O      11.70317      2.38382      6.17423         1.304223     -0.513190     -0.714253
O      11.69889     13.48175      6.49991        -0.611755     -0.211043     -0.703000
O      11.71458      1.89412     10.47672         0.328807      0.503550      0.268628
O      11.57132     13.63158     10.39293        -0.969237     -0.380731     -0.376461
O      11.82728      6.23806      2.27623         0.677997     -1.583496     -0.069949
O      11.78020      5.87310     14.34269        -0.128240     -0.381869      0.756455
O      11.71861      5.45748      6.21299        -0.302190      0.425209     -0.450069
O      11.83426      5.74215     10.37685        -1.560152      0.741862      0.336337
O      11.67590      9.57452      2.33993        -0.119972     -0.842878     -0.541035
O      11.62641      9.92422     14.54127         1.208746     -0.389761     -0.528156
O      11.64900      9.90653      6.13005         1.382103     -0.409845      0.436898
O      11.75302      9.79775     10.43738         0.216714     -0.113107      0.001980
O       2.06723      3.88241      1.85032         0.433588      0.092502      0.681062
O       2.09592      3.89634     15.14383        -1.150444     -0.702075      0.247671
O       1.48001      0.15843      2.45404         0.718068     -2.765251      0.162941
O       1.79259     15.51655     14.55620         0.191952      0.431788     -0.256561
O      13.73072      3.97148      2.18172         0.009879     -0.843644      0.545212
O      13.48650      3.75237     14.78301         0.787316      1.858993     -1.234872
O      14.02277     15.37317      2.16663         0.450707      4.346150     -0.288479
O      13.77502      0.09043     14.56338         0.217090     -2.019687      1.089353
O       2.11510      4.04062      6.12012        -1.536135     -1.712350      0.377584
O       2.19225     15.58229      6.24924        -0.337362      0.142717      0.327308
O      14.11549      3.83064      5.98176        -0.840391      0.077151      0.179931
O      13.39354      0.18046      6.26960         1.052516     -0.424520      0.113653
O       2.10298      3.79519     10.44592         0.044536      1.470262     -0.227262
O       2.13537      0.03686     10.41733        -0.803762     -0.963907      0.524982
O      13.72465      3.91535     10.49376        -0.019558     -1.286666      0.322445
O      13.45812      0.01851     10.57900         1.584013     -0.368077     -0.918399
O       2.00505      7.74498      1.85383        -0.304376      2.079474      1.901084
O       1.99946      7.94614     14.62829        -0.399663     -1.340850     -0.796207
O      14.24249      7.73846      2.17536        -1.035634     -0.195442     -0.360493
O      13.76849      7.79925     14.53021        -0.428670     -0.982857     -0.075680
O       2.13990      7.99286      6.37519        -0.036499     -2.594476     -0.354327
O      13.52566      7.54930      6.23556         0.015342      2.162986      0.457077
O       1.79568      7.84563     10.40193         0.648557     -0.260187      0.111734
O      13.68255      7.75988     10.34266        -0.280509      1.028687      0.081707
O       2.11575     11.93109      1.99797        -0.026251     -1.455106      0.750541
O       1.89567     11.62636     14.16781         0.786795      1.313632      0.436885
O      13.32472     11.66086      1.95826        -0.120283     -1.323552      0.573491
O      13.77063     11.65660     14.46451        -0.615910      2.293868      0.659579
O       1.78566     11.64479      6.01337         0.321534      1.224149      0.966334
O      13.73764     11.53004      6.37295        -0.234753      1.613869     -0.401526
O       2.04513     11.73266     10.67228         0.584755      0.515953     -0.115199
O      13.53046     11.76435     10.35429         0.043845     -0.242862     -0.206546
O       5.58092      3.78058      2.13156         0.192241      1.842809      0.349972
O       5.92994      3.72982     14.67295         0.217107      0.205619     -0.008584
O       6.05570     15.54796      2.50708        -0.168819      0.154053     -0.946342
O       6.19011     15.55803     14.72692        -0.417719     -0.195557      0.483020
O       6.06955      3.98952      6.30633         0.144999     -0.707459      0.638225
O       5.58385      0.00288      6.44647         0.407277     -0.972650     -0.884203
O       5.81263      3.83779     10.42776         0.327582      0.232044      0.397020
O       6.01098      0.00255     10.82555        -0.717560     -1.431853     -0.573804
O       5.50783      7.76983      2.32596         0.297115      0.018122      0.037927
O       5.65677      7.55944     14.27830         0.237664      0.929266      0.562608
O       5.49344      7.74786      6.30010         0.501462      1.611422      0.178906
O       5.59412      7.78097     10.78079         0.414450     -0.566771     -0.152945
O       5.60478     11.67561      2.15281         0.837491      2.051193      0.295942
O       5.86427     11.66807     14.77902        -0.343152     -1.985616     -0.096029
O       6.00172     11.52413      6.46302         0.179502      2.456066      0.174981
O       5.91069     11.83583     10.52857        -0.560794     -1.147079     -0.436819
O       9.83258      3.88015      2.14369        -0.419812      0.408338      0.672367
O       9.74160      4.01581     14.49520         0.066374     -0.555612     -0.846119
O       9.75332     15.55170      2.14031        -0.018833      2.019364      0.512787
O       9.64803     15.42211     14.84866         0.114511      3.222042      0.058620
O       9.61333      3.93940      6.35031        -0.767710      1.626969     -0.165716
O       9.86500      0.06180      6.33717         0.271882     -1.483388      0.145282
O       9.83717      3.91902     10.73077        -0.449873      0.905724     -1.028774
O       9.85469     15.53164     10.36800        -1.219843     -0.684529     -0.690268
O       9.55066      7.49763      2.17707         0.601213      2.816804     -0.534057
O      10.19411      7.78330     14.99072        -1.718483     -0.761172     -1.399949
O      10.01801      7.84198      6.32487        -0.261765     -1.768091      0.732807
O      10.06046      7.80139     10.54201        -0.190568     -1.730100     -0.857268
O       9.92028     11.55637      2.22339         0.149955      0.319026      1.029489
O       9.65249     11.60255     14.74597         0.031350      1.048932     -0.787231
O       9.67840     11.58425      6.04038        -0.192490      0.136556      0.363843
O       9.64500     11.63688     10.60702        -0.214970      0.592647     -0.922284
