  # total energy = -7844.19216572 
CRSYTAL
PRIMVEC
    15.6080000000000005    0.0000000000000000    0.0000000000000000
     0.0000000000000000   15.6080000000000005    0.0000000000000000
     0.0000000000000000    0.0000000000000000   16.6239999999999988
PRESSURE
2.36884 3.45721 -1.78385 -0.397697 -0.115588 -0.121687
PRIMCOORD
320 1
Pb       3.58164      4.03216      4.09175         1.472802     -0.441719      0.061263
Pb       3.78283      4.01890      0.23899         0.405764      0.485611     -0.467875
Pb       3.76082      0.05153      4.28575        -0.294533     -0.352581     -0.286763
Pb       3.87047     15.42231     16.28699        -0.039733      0.079782      1.607464
Pb      15.50247      3.96516      4.14824        -0.459534     -0.148394      0.611497
Pb       0.09134      3.73236     16.46318        -0.111770      0.464677      0.625511
Pb       0.12138     15.43555      4.35583         0.299226      0.038965      0.156273
Pb       0.18735     15.37941      0.04266        -1.512566      0.869482     -0.713972
Pb       3.93400      3.87261      8.34755        -0.224812     -0.875668      0.111900
Pb       3.86352     15.53428      7.98180         0.595624      0.643610      1.177929
Pb      15.51792      4.05456      8.31035         0.385218     -1.179268     -0.296536
Pb       0.11813      0.31721      8.50056         0.309073     -1.324645     -0.923622
Pb       4.18505      3.80328     12.44558        -0.456154      0.312419      0.464075
Pb       3.90806     15.42158     12.34680        -1.243252      0.923349      0.895716
Pb      15.49126      3.69971     12.44113         0.436898      0.607714      0.055255
Pb       0.14887      0.28191     12.50124        -0.859724     -1.405713     -0.061684
Pb       3.71783      7.71708      4.31038         0.196157     -0.872152     -0.474341
Pb       3.74593      7.98360      0.09816        -0.465261     -0.935244     -0.203141
Pb      15.38082      8.08457      4.21810         0.695422     -2.426617      0.925734
Pb      15.47127      7.87315      0.26899         0.466233     -0.435520     -0.327164
Pb       3.67120      7.91187      8.24028         0.199024     -0.951833      0.264625
Pb      15.55282      7.53320      8.40575        -0.338452      0.319163      0.042951
Pb       4.02466      7.94927     12.42672        -0.888022     -0.957516     -0.584190
Pb       0.11386      7.66134     12.70986        -0.464911     -0.135075     -0.063287
Pb       4.12204     11.48768      3.89014        -1.392551      2.907152      2.381415
Pb       4.08303     11.60799     16.39831        -1.278826      0.224816      0.704813
Pb      15.37396     11.67948      4.44026         0.813170      1.227511     -0.168657
Pb       0.01322     11.69013      0.15440         0.176866      0.397163     -0.421774
Pb       4.12123     11.68750      8.59451        -0.430400      0.395329     -0.261873
Pb       0.03200     11.35275      8.61853        -1.259585      1.582148     -1.079958
Pb       3.47639     11.76353     12.29181         1.826778     -0.646991      0.399395
Pb       0.00531     11.64752     12.40973        -1.287278      0.896015      0.725596
Pb       7.71516      4.01833      4.41990         0.638527     -0.178559     -0.460651
Pb       7.86773      3.67126      0.18574         0.434126      1.062341     -0.100184
Pb       7.38110      0.20281      4.00936         1.001426     -0.549051      1.314476
Pb       7.86315      0.27317      0.20524         0.012233     -0.515525      0.064661
Pb       8.09509      3.88819      8.74311        -1.570278      0.443802     -0.494213
Pb       7.86900      0.22855      8.34800        -2.264153     -0.885546      0.091808
Pb       7.86016      3.60232     12.69402         0.247805      0.349307     -0.480104
Pb       7.59405     15.27696     12.40679         1.359329      2.669508     -0.041333
Pb       7.89510      7.72444      3.95040         1.045896      0.570114      0.116953
Pb       7.96596      7.83172     16.34360        -0.496373     -0.119373      1.369939
Pb       7.89756      7.59190      8.16767         0.065680      0.011325      0.564268
Pb       7.67746      7.64646     12.52526         0.309103     -0.522706     -0.267740
Pb       7.65492     11.83983      4.31165         0.848907     -0.788280      0.847587
Pb       7.55748     11.33044     16.60356         0.090227      0.788121      1.080811
Pb       7.53936     11.91954      8.65634         1.213524      0.185955     -0.687192
Pb       7.65011     11.99208     12.53084         0.239252     -1.187215     -1.202112
Pb      11.99367      4.13437      4.00844        -2.674908     -2.147912      1.059433
Pb      11.75360      3.80697      0.16846        -0.287156     -0.178590     -0.029081
Pb      11.54833      0.18644      3.83811         0.498911     -0.695568      0.494324
Pb      11.64172     15.51164     16.60245         0.934049     -0.653219      0.709862
Pb      11.56276      3.78683      8.22036         0.261781      0.628797     -0.092433
Pb      11.38309      0.05470      8.35715         0.518548     -1.232977     -0.938989
Pb      11.80315      4.10717     12.60919        -0.380462     -0.653021     -0.823639
Pb      11.78255      0.20543     12.35384        -0.262247     -1.258657      0.801678
Pb      11.86969      7.94261      3.93990        -1.765382     -0.946859      0.114695
Pb      11.48886      7.74315     16.52082         0.187970      0.541365      0.757348
Pb      11.30219      7.86087      8.04465         1.809131     -0.557654      1.821806
Pb      11.83233      7.86264     12.22556        -0.703451      0.188689      1.006128
Pb      11.64378     11.87966      4.35214         0.049757      0.396791      0.324161
Pb      11.58105     11.75437      0.32316         1.397887      0.641978     -1.188805
Pb      12.00562     11.25717      8.23738        -0.340721      1.721961      0.933548
Pb      11.59300     11.74853     12.37792         0.924039      0.195582      0.337178
Ti       1.93651      1.91616      2.04943        -1.574256     -0.413902      0.360831
Ti       1.98468      1.97542     14.57556        -0.671269     -0.365944     -0.432903
Ti       2.00584     13.79178      2.16525        -0.223122     -2.728419      0.870058
Ti       1.95321     13.47759     14.64447        -0.846345      0.162812      0.225112
Ti      13.77456      1.86269      2.20495        -0.772006     -0.266194     -0.863446
Ti      13.56142      1.87313     14.75763         2.921061     -0.746550      0.008987
Ti      13.67843     13.70698      2.24833        -0.206614      0.822140     -1.142794
Ti      13.68563     13.54442     14.57775        -0.891357      0.774510     -1.643290
Ti       1.94441      1.94794      6.32338        -1.596214     -1.305782     -0.884570
Ti       2.06655     13.44150      6.31494        -1.273469      1.877697     -0.731386
Ti      13.56595      1.91338      6.41951         1.584800     -1.400823     -2.230033
Ti      13.79877     13.76289      6.45662        -1.400641     -0.597418     -0.166196
Ti       2.05722      1.93903     10.64111        -1.250338     -1.286178     -2.364722
Ti       1.81466     13.61579     10.32518         0.036459      0.611155     -1.474502
Ti      13.59738      1.84522     10.38876         1.573851      1.363336      0.460266
Ti      13.59682     13.58285     10.43906         1.174236     -0.612343     -0.008698
Ti       1.89833      5.72840      2.25079        -0.066875      3.105230     -1.376224
Ti       2.12857      5.75000     14.66828        -2.845062      1.008450      0.090604
Ti      13.69626      5.74658      1.97966        -0.493690      0.402032      0.174047
Ti      13.63688      5.78585     14.74658         1.750193     -0.011089     -0.337809
Ti       2.02510      5.73376      6.27902        -1.750530      0.002210      1.287118
Ti      13.55140      5.91825      6.55096         0.584863     -1.637210     -1.029749
Ti       1.77186      5.76458     10.66560         1.464070      0.418053      1.056462
Ti      13.54771      5.83855     10.61572        -0.218563     -0.299914     -0.778693
Ti       2.01451      9.74128      2.37551        -1.565453      1.114854      0.124682
Ti       1.80250      9.65567     14.55008         0.527680      1.047178      0.993942
Ti      13.65322      9.96634      2.34381        -0.458701     -1.986880     -1.296582
Ti      13.63051      9.83676     14.82444        -0.036551      1.663676     -0.628945
Ti       2.10350      9.77043      6.25452        -0.965875      0.174937      0.106449
Ti      13.73450      9.67878      6.33289        -0.076745      0.548087      0.661234
Ti       1.84836      9.64627     10.34779         1.122924     -0.883676      4.039090
Ti      13.74412      9.69541     10.68505        -1.495456     -0.453120     -0.716775
Ti       5.61411      1.97994      2.02162         3.264893      0.178356      0.869187
Ti       5.82841      2.08896     14.68034        -1.331814      0.257625     -0.226165
Ti       5.94045     13.49105      2.18301        -1.101016      1.227002     -0.743727
Ti       6.00771     13.83457     14.76668        -2.041393     -1.554487      0.749189
Ti       5.75065      2.09860      6.15681         0.792052     -3.094212      1.633917
Ti       5.88339     13.48603      6.35921         1.225063      2.773326     -0.693433
Ti       5.85266      1.93219     10.59322         0.664908     -0.484129     -2.674038
Ti       5.71642     13.67959     10.68681        -1.132479     -1.174555     -3.045478
Ti       6.09918      5.69449      2.18438        -2.950894      0.199211      0.087282
Ti       5.95699      5.83566     14.89043        -0.822080     -0.485432     -0.481791
Ti       5.80742      5.75720      6.47994         1.959859      0.079374     -1.540642
Ti       5.79439      5.82856     10.32295         0.087673     -0.584578     -0.062723
Ti       5.88546      9.50379      2.24414         2.180851     -0.212931     -1.377294
Ti       5.71590      9.78614     14.35485        -0.214169     -0.843333      2.545502
Ti       5.95332      9.60569      6.35020         0.528152      0.685640     -0.451187
Ti       6.02180      9.63990     10.41307        -0.971750      1.586999     -1.125557
Ti       9.69973      2.03845      2.22990         0.722640     -0.384916      0.401163
Ti       9.82429      1.79434     14.76042        -0.519332      0.957759     -0.755189
Ti       9.56301     13.52606      1.85550         2.151988      2.105640      0.440071
Ti       9.71325     13.51438     14.53300         2.862988      2.530718     -0.346615
Ti       9.70004      1.80194      6.17853        -1.095032      2.110795     -2.720033
Ti       9.78683     13.68330      6.28988        -0.179491     -0.803637      2.182553
Ti       9.77690      2.00347     10.65456        -0.762181     -0.383459      2.020029
Ti       9.81932     13.75981     10.47408         0.095691     -1.149521      0.033358
Ti       9.83240      5.77714      2.10450         0.050543      1.484537      0.476554
Ti       9.81578      5.71443     14.67651        -0.407120     -1.078866      0.624608
Ti       9.80154      5.82148      6.27636        -2.358812     -3.621131     -0.960671
Ti       9.71465      5.83588     10.55973        -0.076746     -0.284603      0.058177
Ti       9.82370      9.96183      2.19563        -1.224851     -5.172944      0.999001
Ti       9.67326      9.90947     14.47596         1.721925     -1.035295     -0.382161
Ti       9.70580      9.91540      6.41069        -0.277434     -0.401825     -2.595558
Ti       9.75048      9.76354     10.38437         0.899335      0.580505      1.747647
O       1.87108      2.19258      0.25714         1.457595     -1.176927     -0.590523
O       1.78313      2.07075     12.62261         0.440153     -0.885130      2.253119
O       1.96187     13.85692      0.29442        -0.187580     -0.951202     -0.364735
O       2.07648     13.49791     12.79837        -0.060403     -0.022299      0.550775
O      13.81715      1.57952      0.43891        -1.142228      1.299184     -2.101426
O      13.89827      2.11594     12.86459        -1.635960     -0.919200      1.098016
O      13.63084     13.59977      0.39485         1.460655     -0.007178      0.456589
O      13.61321     13.37478     12.65960         0.068157      0.380233      0.941926
O       1.87464      1.84218      4.38481         0.604476      0.291615      0.520257
O       2.10024     13.81405      4.32396        -0.114722     -0.261004      1.934569
O      13.63893      1.88758      4.56594         0.076929     -0.007148      0.472751
O      13.45663     13.56411      4.45560         0.512442     -0.274165      0.013151
O       1.90901      1.57255      8.68797         0.954335      1.735580      1.092890
O       1.75234     13.45465      8.45002         0.071959      0.544348      1.481011
O      13.91916      1.80575      8.64770        -1.601453      0.276415      0.019319
O      13.79137     13.29822      8.53445        -0.346169      0.978771      0.826402
O       2.18818      5.93130      0.35637        -0.034630     -0.834384     -0.295869
O       1.78672      5.73933     12.60933         0.342839      0.791287     -0.658498
O      13.38556      5.65207      0.15747         0.536469      0.766901      0.750991
O      13.67659      5.82547     12.70356         0.235031     -0.653734      0.903176
O       1.96848      5.73670      4.33568        -0.184749     -0.383524      0.534180
O      13.67366      5.33145      4.49553         1.231907      2.942750      1.822693
O       1.89369      6.00154      8.14149         0.611650      0.258714      2.183815
O      13.52869      6.16499      8.53035         0.117730     -1.129745     -0.556247
O       1.81933      9.65651      0.61091         0.245351     -0.319679     -1.060211
O       1.97260      9.58884     12.80772         0.044314      0.263017     -2.012863
O      13.91632      9.84506      0.48278         0.084970     -0.675024     -1.793377
O      13.70926      9.95121     12.53434        -0.023993     -1.118415      1.841913
O       2.18787      9.84798      4.54429        -0.527012     -0.458763     -1.673122
O      13.41943      9.64517      4.45515         1.097777      0.252682     -0.713037
O       1.72286      9.68176      8.67562         1.440165     -0.689117     -3.924155
O      13.71350      9.71430      8.59138         0.491486     -0.184374     -0.536614
O       6.03488      2.02772      0.18053        -1.516130     -0.353420      1.027946
O       5.86189      2.12071     12.81588        -1.028935     -0.583780     -0.510323
O       6.35039     13.66520      0.20877        -1.480565     -0.228851     -0.065584
O       5.59674     13.82389     12.64861         1.223407     -1.324116      0.753072
O       5.66313      1.76378      4.41511         0.373529      0.740994     -0.919979
O       6.05243     13.63059      4.31441        -0.769378     -0.466502      0.397407
O       5.79539      1.90786      8.68405         0.096506      0.580643      1.290557
O       5.74579     13.63059      8.76603         0.953465     -0.893956     -0.423796
O       5.63042      5.49136      0.49026         0.602483      0.417196     -2.754859
O       5.88545      5.88003     13.10823         0.286120      0.057697     -1.635154
O       6.24538      5.83820      4.66540        -0.247807      0.318380      0.404752
O       5.62233      5.69543      8.56360         0.471412      0.309575     -0.265427
O       5.59105      9.71557      0.29243         1.056969     -0.168472      1.746722
O       5.85945      9.43824     12.63762         0.358542      1.234041     -1.276119
O       6.06579      9.67422      4.40117        -0.126370     -0.476298      1.310282
O       5.98192     10.10523      8.54125        -0.502660     -1.314663      1.025409
O       9.80988      1.62153      0.25458        -0.698132      1.679534      0.112958
O       9.74451      1.94613     12.86045         0.390406     -0.164204      0.939831
O       9.33184     13.32589      0.08000         0.696666      0.533958      0.430349
O       9.94937     13.49228     12.57169        -1.029961      0.437084      2.634171
O       9.79509      1.87150      4.17606        -0.209399     -0.352330      2.700680
O       9.77380     13.43242      4.60373        -0.258706      0.225160     -2.687526
O       9.36325      1.96751      8.93261         1.886328     -0.731690     -2.059202
O       9.43131     13.88665      8.75230         1.084717     -0.502625     -0.865596
O       9.85355      5.80410      0.29909         0.841281      0.495248     -1.019831
O       9.54208      5.48739     12.95880         0.208052      0.655494     -0.633265
O       9.83525      5.57158      4.51405        -0.946308      0.671193     -0.589097
O       9.87528      5.74488      8.78506         0.049493     -0.773638     -0.875195
O       9.61735      9.64630      0.35862         0.886790      0.310891     -0.734306
O       9.87640      9.86830     12.71028        -0.943084     -0.468982      0.758502
O       9.86277      9.69487      4.41247        -0.232685      0.473246      1.421608
O       9.84700      9.71481      8.65418        -0.361946     -0.103889     -2.602526
O       3.90323      1.98873      2.31903        -1.744431      0.204327     -0.228642
O       3.76655      2.14128     14.71797         0.478544     -0.952922      0.423405
O       3.78197     13.45237      2.21370         3.024622     -0.115674      0.077144
O       3.95454     13.45478     14.97083         0.767495      0.937095     -0.071269
O       0.08450      1.73409      2.05622         0.397723      0.468411      1.689126
O       0.03947      1.79693     14.98563         0.139968      0.104096     -0.518907
O       0.04877     13.61666      2.58269        -1.397768      0.417180     -0.743742
O       0.00897     13.38642     14.78326         1.388587      0.847159      0.385314
O       3.86265      1.83706      6.44606         0.342669      0.136657      0.293166
O       3.85406     13.54311      6.70508         1.355231      0.717034     -0.719957
O       0.01498      1.91468      6.56988        -0.819123      0.084483      0.274454
O       0.01771     13.51360      6.18211        -0.424456      0.177794      0.086647
O       3.81383      1.97360     10.74271         2.672870     -0.076020      0.789946
O       3.78393     13.39226     10.41947         0.572041      0.355972      1.530735
O       0.05103      1.93251     10.74967        -1.473937     -0.439573     -0.075569
O       0.05098     13.62282     10.79415        -0.870836     -0.112203     -0.296984
O       4.23472      5.87769      2.61081        -2.182571     -0.287843      0.900739
O       3.88247      6.14599     14.98771         0.192269     -0.472701     -0.475051
O       0.04450      5.62208      2.25619        -1.153624      0.852507     -0.117741
O       0.11601      5.85233     14.89201        -1.007037      0.004253      0.013466
O       3.93460      5.66096      6.28812        -0.551086      0.799258      0.296304
O       0.02593      5.43826      6.50662        -1.316758      1.367915     -0.564390
O       3.85714      6.08899     10.44938        -0.110232     -1.036917      0.905487
O      15.38762      5.88385     10.28307         3.969391     -0.305245      0.606560
O       4.03968      9.62065      2.86842        -0.377176     -2.024591     -3.102208
O       3.78475      9.81342     14.75457         1.736320     -0.808119      0.000874
O      15.51473      9.64076      2.76230         0.929149      0.870911     -1.218510
O      15.58478     10.00968     14.58302        -0.985741     -1.101620      0.809510
O       4.05202      9.63814      6.49092        -0.271684     -0.166307      0.642654
O       0.03600      9.83058      6.19451         0.188424     -0.743424      0.370302
O       4.07613      9.77655     10.42967        -1.581546     -1.371225      0.562381
O      15.59016      9.45635     10.46034         0.778100      0.899431      0.749398
O       7.77157      1.85363      2.44361         0.139300      0.224038     -1.281630
O       7.60772      2.02978     14.84813         2.700600     -0.318446      0.070001
O       7.89501     13.09637      2.44248        -1.239876      1.552868     -0.680913
O       7.80299     13.65801     14.45898         0.158557     -0.339854     -0.442639
O       7.78632      1.96222      6.25927         0.400974      0.436987      0.451994
O       7.82082     13.29311      6.55286        -1.286395      0.417903      0.032688
O       7.76050      1.83852     11.01221        -0.888009     -0.082545     -0.409042
O       7.92381     13.65994     10.81054        -2.966996     -1.020521      0.819468
O       7.88794      5.54764      2.25285         2.239904      0.344219      0.734557
O       7.77810      5.50360     15.28235         0.186859      0.875281     -1.047450
O       7.84608      5.31348      7.00656        -0.291748      2.209114     -1.693083
O       7.82294      5.64226     10.57593        -2.296671      0.572142      0.281091
O       7.90090      9.73135      2.45920        -1.093618      0.639316     -0.516643
O       7.82261      9.74832     14.96899         0.466844      0.760830     -1.902337
O       7.80984      9.79336      6.82998         0.698460     -0.030811     -1.095825
O       7.88217      9.90291     10.58674        -0.616767     -0.307425      0.614088
O      11.76142      1.93336      2.33990        -0.552446      0.232369     -0.285511
O      11.71836      1.69337     14.85467         1.042272      0.742534     -0.213727
O      11.64357     13.52192      1.93617        -0.891896      0.309500      0.991703
O      11.78659     13.61992     14.88519        -1.858735      0.096043      0.164201
O      11.51388      1.60401      6.55974         1.041497      0.067637      0.901626
O      11.65082     13.76047      6.48916         0.035145     -0.083077      1.042849
O      11.75357      2.20534     10.55198        -0.932951     -1.968319      0.446048
O      11.71614     13.67065     10.62366         1.239476      0.441283     -0.407137
O      11.78188      5.78359      2.34353        -0.003224     -0.735501     -0.064872
O      11.74232      5.31819     14.58331         0.006018      2.002007      0.915588
O      11.52699      5.91902      6.70628         3.830496     -0.429670     -0.331457
O      11.65953      5.90657     10.87548        -0.306533     -0.480313      0.353117
O      11.76004      9.65794      2.31969         0.033467      0.145716     -0.160599
O      11.82982      9.75454     14.75513        -1.007147     -0.780125      0.479110
O      11.76536      9.68887      6.55826        -1.266744     -1.110678      0.118506
O      11.78506      9.32508     10.49340        -0.697300      1.245385      0.343735
O       1.86721      3.92072      2.22920         1.543119     -2.292888      0.818093
O       1.76071      3.93162     14.56394         1.063464     -0.162037      0.992887
O       2.08941     15.56218      2.37479        -0.039059      2.492116     -0.309040
O       2.19677     15.51310     14.88075        -1.477725      0.906128     -1.094729
O      13.62396      3.84295      2.47147         1.105313     -0.695100     -1.428566
O      13.81576      3.81576     15.21860        -1.143140     -1.615980     -1.866376
O      13.52410      0.02171      2.37770         0.394810     -2.099509      1.051568
O      13.77648     15.35870     14.76571        -0.075732      3.185106      0.038904
O       1.95984      3.75194      6.75922         0.763272      1.312491     -0.595200
O       1.83774      0.02650      6.58814         0.583426     -1.058229     -0.596195
O      13.55594      3.68329      6.65348        -0.910324      1.950135      1.160110
O      13.64398     15.53237      6.68294         0.443403     -0.128385      0.148735
O       1.99484      3.75289     10.71803        -0.428102      3.905595     -1.030787
O       2.07179     15.40589     10.90700        -0.556144      0.802192     -0.560346
O      13.53601      3.94813     10.51640         0.883085     -0.229314      0.544048
O      13.67031     15.58357     10.92648        -0.302328      0.562102     -0.913553
O       1.99872      7.61731      2.43888         0.165479      1.973460      0.883058
O       1.75275      7.87482     14.93894         0.447999     -0.791786     -0.015974
O      13.56740      7.58659      2.27460         1.201409      0.753246      0.313626
O      13.70595      7.60762     15.08232        -0.396927      1.397276     -0.433184
O       2.04706      7.84817      6.26550         0.020928     -0.977990      0.571377
O      13.78979      7.66974      6.37716        -0.036328      0.316714     -0.195883
O       1.86924      7.72676     10.82132         0.089842     -0.297658     -0.764075
O      13.69173      7.74218     10.91289         0.544485     -0.071425     -0.081999
O       1.79390     11.57433      2.51283         0.912374     -0.705324     -0.234924
O       1.90402     11.65515     15.06611         0.861542     -0.273293     -0.089494
O      13.55277     11.68608      2.28946         0.394652      1.438248      0.931713
O      13.64045     11.72510     14.95032        -0.052420     -3.196671      0.608371
O       2.03921     11.69118      6.49896        -0.217735     -1.916630      0.022081
O      13.62112     11.46734      6.47253        -0.022721      1.735973     -0.185151
O       1.89787     11.57494     10.67070        -0.661801     -0.590426     -0.320669
O      13.81777     11.66999     10.72295        -0.246860     -0.018157     -1.223752
O       5.96078      3.82607      2.51714        -0.579835     -2.149740      0.021578
O       5.54849      3.92508     14.78319         0.396551      0.441627      0.583884
O       5.76226     15.54734      2.37493         0.342674     -0.349154     -0.750029
O       5.74678     15.59718     14.70345         0.093820      0.397110      0.344616
O       5.65782      3.87948      6.44581         0.150157     -0.152646      0.271953
O       5.96315      0.03084      6.56223        -0.616392     -0.950260     -0.220367
O       5.81172      3.80054     10.62203        -0.619002      2.007936      0.656515
O       5.55493     15.59753     10.68508         0.946067     -0.621927      0.597933
O       6.41593      7.58643      2.04472        -1.555996      2.960126      0.976878
O       6.12279      7.90753     14.66592        -0.540269     -0.607688      1.174183
O       6.05916      7.71728      6.77039        -0.852087      0.390364     -0.511631
O       6.07081      7.73248     10.62177        -0.220511      0.035009      0.020812
O       5.73477     11.63281      2.29242         0.775693     -0.485058     -0.410015
O       5.78015     11.65990     14.77387         1.322454     -0.189311     -0.474046
O       5.73443     11.74540      6.43970         0.044388     -1.877782      0.007988
O       5.75274     11.67689     10.78152         1.367903      0.489531      0.439932
O       9.81285      3.92135      2.30303         0.083269     -2.174263     -0.612130
O       9.91748      3.72791     15.17832        -1.002027     -0.627581     -0.491946
O       9.83764     15.59064      2.16357        -1.046715     -2.341412     -0.013758
O       9.87091     15.50521     15.00407        -1.340438     -0.590235     -0.980685
O      10.04037      3.79699      6.53814        -0.948461     -1.937467      0.359089
O       9.42265     15.49334      6.74914         1.254630      2.016483     -0.870254
O       9.55404      3.83630     10.88729         0.928626     -0.473903     -0.271886
O       9.63848     15.58970     10.79946         1.436581      1.187039      0.379697
O       9.95911      7.66922      2.43209        -0.930515     -0.075819     -0.063480
O       9.69498      7.66565     14.67688         0.391222      0.248638      0.575319
O       9.53979      7.58616      6.42025        -0.460109      2.681736      0.782054
O       9.58085      7.62471     10.58932         0.055757      2.187239      1.134635
O      10.00264     11.65936      2.21395        -0.288496      2.301069      0.375638
O      10.01647     11.76352     14.71423        -1.187645     -2.390108      0.031143
O       9.92679     11.64937      6.47534        -0.141919     -0.148236      0.513095
O      10.00309     11.63434     10.64392        -0.649339     -0.420059     -0.528457
