  # total energy = -7833.80372506 
CRSYTAL
PRIMVEC
    15.6080000000000005    0.0000000000000000    0.0000000000000000
     0.0000000000000000   15.6080000000000005    0.0000000000000000
     0.0000000000000000    0.0000000000000000   16.6239999999999988
PRESSURE
4.31777 4.49067 0.934682 0.104094 0.332371 0.301198
PRIMCOORD
320 1
Pb       4.33253      4.08815      4.30511        -1.860389     -1.557086     -1.097565
Pb       4.15948      3.68220      0.05357        -0.961243      1.082350      0.427092
Pb       4.34352      0.11825      4.24738        -1.171411     -0.158956     -0.379689
Pb       3.94345      0.18383      0.54271        -1.772120     -1.269976     -1.995576
Pb       0.51024      4.00423      4.23843        -2.421590     -0.370090      0.335792
Pb       0.08675      3.91956      0.33707        -0.550337     -0.120106     -0.709064
Pb      15.37190      0.05372      4.21817        -0.397403     -0.315094     -0.035464
Pb       0.07982      0.07705      0.09735         0.763964     -0.459273     -0.292215
Pb       4.02919      3.68472      8.20468        -0.435885      0.243545      0.390363
Pb       3.96745      0.00554      8.91434        -1.156549      1.110111     -2.652028
Pb      15.48892      3.72807      8.24964         0.121020      0.930110      0.242290
Pb      15.08869     15.44959      8.00281         0.366138      0.529904      0.204904
Pb       3.65899      3.84336     12.25598         1.100272     -0.454985      0.238142
Pb       3.75852      0.50766     12.41782        -0.613488     -1.633878     -0.529078
Pb       0.28904      3.86746     12.53358        -0.935476     -0.454890      0.492059
Pb      15.14037     15.30862     11.86899         1.455021      0.303351      1.507594
Pb       3.93694      8.31172      4.19494        -1.150105     -1.362576     -0.661584
Pb       3.97691      8.00361      0.08628         0.146769     -0.919988     -0.212169
Pb       0.25364      7.61453      4.18764        -1.233218      0.992568      0.423445
Pb       0.18575      8.28099     16.51877        -2.032971     -2.454179      0.250585
Pb       4.22574      7.89301      8.94074        -1.152837      0.242673     -2.163808
Pb       0.03989      7.80824      8.70660         0.373741     -1.192856     -1.639913
Pb       3.76784      7.39942     12.93767         0.403446      0.726474     -0.586498
Pb       0.03143      7.49210     12.64634        -0.190248     -0.140161     -0.006201
Pb       3.59183     12.15322      4.87536         0.762116     -1.839606     -1.867814
Pb       3.29712     11.99989      0.47750         1.566248     -0.149608     -1.458314
Pb       0.24172     11.62473      4.23817        -1.511768     -0.304743      0.274482
Pb      15.37455     11.70829     16.30881         0.348841     -0.187440      0.902794
Pb       3.66528     11.49554      8.49240        -0.133139      0.088440     -0.696076
Pb      15.34592     11.56524      8.21677         0.713528     -0.666009     -0.659748
Pb       4.45769     11.85848     12.62198        -1.444825      0.600868     -0.247366
Pb      15.12765     11.86676     12.47397         1.612413      0.154101      0.872802
Pb       8.13738      3.98152      3.57877        -1.512362      0.395785      0.639737
Pb       7.78858      3.96725     16.42506         0.227249     -0.522383      0.555085
Pb       8.50063     15.58556      4.13518        -2.067774      0.092369     -0.530262
Pb       7.59759     15.24347     16.57596        -0.104036      1.510385     -0.006375
Pb       7.47145      4.05153      7.98488         0.114604     -0.539000      0.854309
Pb       7.64317      0.03447      8.42119         0.806538      0.253212     -0.891416
Pb       7.95121      3.91706     12.46614        -0.463735     -0.301428     -0.202374
Pb       8.21533      0.30063     12.90845        -2.920310     -2.460974     -1.313201
Pb       7.47982      7.88411      4.06595         1.404941      0.058534     -0.544803
Pb       7.56148      7.91362      0.29779        -1.177300     -0.075987     -0.422628
Pb       7.70543      8.10672      8.31833        -0.060450     -1.024092      0.128733
Pb       7.63512      8.01656     12.64423         0.135719     -0.032946     -0.309491
Pb       7.64859     11.87736      4.04301        -0.132183     -0.475927     -0.114251
Pb       8.01795     12.12029      0.01611        -1.909656     -1.493012     -0.849320
Pb       7.59788     11.37822      8.00680        -0.369182      0.638058      0.836364
Pb       8.00564     11.42236     12.87240        -0.002993      1.396461     -0.401495
Pb      11.29031      3.65981      3.87749         3.229193      1.497433      1.293094
Pb      11.91220      3.71937     16.54201         0.691287      0.460529      0.151295
Pb      11.73828     15.21383      4.40153         0.636244      0.792366     -0.403910
Pb      12.26671     15.59527      0.42114        -0.980245      0.194063     -0.009839
Pb      11.55974      4.10453      8.68022         0.366520      0.120993     -1.251305
Pb      11.60289      0.40389      8.13063         0.248084     -1.505707     -0.713755
Pb      11.53981      3.30944     12.52235         0.588285      1.623328     -0.361297
Pb      11.45783     15.10595     12.22450         0.480521      0.475088     -0.776441
Pb      11.05626      7.48992      4.23914         1.778544      0.333667     -0.094801
Pb      12.08363      7.91370      0.04774         1.410204      0.237547      0.872529
Pb      12.06299      7.48970      9.02757        -1.465915     -0.067359     -2.132845
Pb      11.52307      7.63401     12.79188        -0.106236     -0.328612     -0.782649
Pb      11.29456     11.40795      3.93334         1.670849      0.039037     -0.132640
Pb      11.94487     11.41137     16.20750        -0.293880      0.937305      1.189162
Pb      11.08163     11.66711      8.29440         1.115388     -1.477062     -0.522401
Pb      11.66156     11.52492     12.30686        -0.312586      0.770320      0.572103
Ti       1.86105      1.93877      2.35790         1.051908      2.402946     -1.190771
Ti       2.07834      1.96272     14.73533        -1.442035     -1.448535     -1.157857
Ti       1.79989     13.64458      2.50840         0.154752      0.850418     -2.088317
Ti       1.77137     13.68806     14.59863         0.230068     -0.728753     -1.642573
Ti      13.55154      1.89720      2.35747         1.521016      1.234253     -0.807256
Ti      13.71124      1.79153     14.29877         1.342518      1.123600      0.783625
Ti      13.65748     13.33696      2.21969         0.175987     -0.779770      0.664216
Ti      13.50812     13.82895     14.73340         0.336529     -4.278497     -1.150930
Ti       2.04534      1.94728      6.21015         0.910492     -0.007653      1.820843
Ti       1.68231     13.79811      6.50391         0.255857     -1.017133      1.206004
Ti      13.56874      2.29690      6.19967        -1.422165     -2.505738     -0.533836
Ti      13.39813     13.31991      6.15615         1.135050     -0.197003     -0.755418
Ti       1.67925      1.75234     10.27038         0.795075      0.035552      0.154457
Ti       1.99290     13.38547     10.39781         0.538759      1.527933     -0.930786
Ti      13.45645      1.82494     10.32354        -0.170496      1.179787     -0.796375
Ti      13.43741     13.33237      9.97450         0.155191      1.037059      1.117198
Ti       2.12029      5.95009      2.24803         0.332824     -1.119856     -2.265250
Ti       1.96611      5.76634     14.85246        -0.625857      0.173880      1.088478
Ti      13.82762      5.81509      2.04290        -1.090197      0.599830     -0.138211
Ti      13.79353      5.70258     14.59531         0.205278     -0.727736      1.015860
Ti       1.86979      5.80851      6.26392         0.259624      1.333416      1.751857
Ti      13.62327      5.80856      6.06370         0.130849      1.852615     -0.396036
Ti       1.94351      5.92214     10.50088        -0.913034     -2.222231     -2.390730
Ti      13.65522      5.46580     10.72459         0.164830     -0.012738      0.467766
Ti       1.82637      9.76278      2.05775         0.484226      0.632506      1.057032
Ti       1.96105      9.71704     14.33087        -0.906403      1.622713      1.484120
Ti      13.88691      9.57271      2.43027        -3.037984     -0.153008     -1.834859
Ti      13.70217      9.56465     14.27350         1.495953      0.674445      3.370709
Ti       1.85930      9.62974      6.26610        -1.634493     -0.680935      1.460139
Ti      13.53786      9.56807      6.20131        -0.145162     -1.043502     -0.168539
Ti       2.08070      9.57256     10.53429        -0.863846      1.241859     -0.866902
Ti      13.75150      9.54890     10.43691         1.050251      0.751578     -0.215432
Ti       5.77767      2.00932      2.10638         1.776314     -0.271831     -0.317216
Ti       5.80956      2.12487     14.24934         1.797772     -1.639844      2.212098
Ti       5.89592     13.65684      2.20134        -1.161665      0.479666     -1.572348
Ti       5.51694     14.09469     14.27615         1.656666     -2.238405      0.751727
Ti       5.93764      1.78876      6.25604         0.148392      1.049775     -0.694886
Ti       5.75254     13.75126      6.27991         0.016188      0.302376      0.014708
Ti       6.07098      1.99536     10.47825        -2.633685      0.871275      0.524690
Ti       6.02879     13.75693     10.13676        -2.138535      0.198798      2.311255
Ti       5.86624      5.94997      2.13333         0.200358     -1.147475     -2.359121
Ti       5.92035      5.75489     14.49073        -1.013600      1.021830      1.237555
Ti       5.63126      5.96020      5.93460         0.384470      1.619991      4.599391
Ti       5.79548      5.95730     10.53347        -0.380357     -2.018729     -0.560924
Ti       5.71544      9.98153      2.17368         0.868340     -0.194085     -0.644159
Ti       5.68044      9.92962     14.64430         1.396486     -0.521270      0.335981
Ti       5.69253      9.75883      6.06201        -0.450768      0.140881      1.693988
Ti       5.88965      9.98148     10.53649         0.591576     -0.638403     -0.202634
Ti       9.74830      1.86805      1.85953        -0.138112     -1.703898     -0.585019
Ti       9.93378      1.87227     14.70325        -0.456074     -0.233043      1.946142
Ti       9.88412     13.61867      1.78245         0.806478      2.189758      0.541667
Ti       9.81909     13.60929     14.42024         1.001376     -1.136538      0.304846
Ti       9.68549      1.94960      6.12322         1.492069     -0.402890      2.092815
Ti       9.54763     13.36889      6.11000         1.110078      1.216976      1.294870
Ti       9.60349      2.02726     10.05387         0.712501     -1.371799      1.843307
Ti       9.55285     13.47059     10.19920         2.034396      0.714331      1.609155
Ti       9.92339      6.06427      1.75156        -1.077497     -1.230557      3.627256
Ti       9.80990      5.72903     14.43317         0.965887     -0.539925      0.551756
Ti       9.64235      5.64490      6.54046         1.425550      0.444241     -0.541977
Ti       9.49475      5.86213     10.54660         3.195702      0.994390     -1.078510
Ti       9.67035      9.69565      1.85165         0.605422      0.675032      2.895880
Ti       9.59624      9.56664     14.86524        -0.799889      1.665408     -1.250285
Ti       9.62160      9.49508      6.09466         1.661041      2.890282      0.867289
Ti       9.82378      9.71664     10.57669        -2.181244     -1.409564     -0.686613
O       2.13832      2.27429      0.37076        -0.453333     -1.033316      0.112782
O       1.83828      1.85668     12.83442         0.694782      0.572190      1.196370
O       1.78871     13.66377      0.49441         0.313552      0.111499      0.915302
O       1.68489     13.54895     12.70477         0.181467      0.445904     -0.079371
O      14.02003      1.70185      0.47733        -0.933572      0.025261     -0.173804
O      13.46761      1.89345     12.50588        -0.170704     -1.186794      1.021074
O      13.59318     13.62859      0.40625         0.516231      0.082994     -1.180914
O      13.62045     13.59770     12.87470        -0.451578      0.138776     -0.317423
O       2.00546      1.94563      4.46422        -0.010613     -0.501660     -0.073082
O       1.97084     13.85191      4.44002        -0.386474     -0.725466      0.178394
O      13.58006      2.00699      4.34017        -0.070408     -0.046629      0.695953
O      13.71043     13.41444      4.28600        -0.919232      0.279767      1.237472
O       1.72849      1.82809      8.45358         0.179726      0.438260      0.659049
O       1.95954     13.70813      8.44225        -1.234871     -0.577126      0.849450
O      13.20065      2.12541      8.41108         1.724153     -0.176385      0.716902
O      13.54713     13.41133      8.21411        -1.395426     -0.501596      0.290051
O       1.95604      6.05915      0.35819         0.042476     -1.125065      0.404033
O       1.91276      5.96201     12.97002         0.487446     -0.546693     -1.392757
O      13.93548      5.92690      0.18067        -1.214067     -0.390649      0.223420
O      13.79175      5.66495     12.73480        -0.343330      0.425883      0.101341
O       1.83424      5.94887      4.39819         0.151428     -0.332526     -1.356805
O      13.73743      5.82596      4.20735        -0.294952      0.324894      2.781598
O       1.95260      5.76214      8.65264         0.417957     -0.166194      1.491892
O      13.75787      5.74890      8.95471        -0.623452     -0.747642     -0.991207
O       1.55257     10.03983      0.24930         1.788513     -0.315120      1.281658
O       1.95167      9.76011     12.57713         0.455299     -0.295273      0.108907
O      13.86854      9.67622      0.51708        -0.333659      0.255033     -2.028703
O      13.74554      9.91008     12.62162        -0.610865     -0.861955     -3.421810
O       1.97247      9.57696      4.42849        -0.098954      0.300002      0.391947
O      13.47121      9.48734      4.37683        -0.091642      0.097423      0.579648
O       2.06536      9.37343      8.53160         0.368858      1.047133      0.431145
O      13.93162      9.37723      8.63827        -1.850429      1.954292     -0.394240
O       5.60947      1.82302      0.24964         0.276396      1.501498      0.688305
O       5.94613      2.10680     12.46417        -0.617155     -0.115060      1.837893
O       6.01288     13.58171      0.13264        -0.087627      0.444381      0.998032
O       5.64226     13.99565     12.44544         0.144131     -1.129746      0.664988
O       6.01024      1.68760      4.42128        -0.033969      0.774953     -0.435706
O       5.83470     13.86357      4.28173         0.479089     -0.200363      0.704133
O       5.95271      1.93629      8.71370         0.433933      0.211062     -2.740487
O       5.90681     13.91536      8.32173         0.698482     -1.066106     -0.078240
O       5.88586      5.89755      0.28477         0.205047     -0.120843     -1.213773
O       5.65555      5.41886     12.75626         0.969829      1.468893      0.331843
O       5.87644      6.16211      4.22053         0.067900     -1.095103     -0.863337
O       5.41690      5.83798      8.73111         1.091491     -0.083164      0.900446
O       5.81910      9.73389      0.40941        -0.167374     -0.057849     -1.950691
O       5.79803      9.85201     12.66469         0.403685      0.000921      0.344783
O       5.96673      9.62146      4.24854        -0.572573      0.189959     -0.538987
O       5.77750      9.79286      8.47692         0.051635     -0.017356      0.986242
O       9.90120      2.08742      0.09731        -0.162618     -0.735044     -0.818585
O       9.62675      1.81985     12.93045         2.235062      2.199040     -2.494609
O       9.73493     13.81670      0.00537         0.438693      0.171461      0.226518
O       9.88249     13.26735     12.42292        -0.292780      1.126714      1.595695
O       9.93010      1.88458      4.32597        -1.008370      0.435406     -1.705547
O       9.62555     13.49930      4.27832         0.736027     -0.706367      0.054292
O       9.73384      1.78426      8.30456        -0.914348      0.751518      1.216234
O       9.72205     13.60813      8.40724        -0.265181     -0.472397     -0.746584
O       9.83091      5.70426      0.14095         0.087429      0.083575     -4.201716
O       9.65821      5.92142     12.64713         0.474745     -0.797190      0.287272
O       9.70278      5.59138      4.69164        -0.252778      0.329139     -0.884198
O       9.70417      5.89874      8.72748        -0.871311      0.071274     -1.252988
O       9.72890      9.19503      0.22399         0.330450      1.094108     -3.516120
O       9.68822      9.87809     12.75985         0.139417     -1.045672     -0.102516
O       9.62493      9.89846      4.29855        -0.475447     -0.803328     -0.639670
O       9.55908      9.49678      8.73873        -0.350428      0.629660     -1.189213
O       4.04607      2.26448      2.55744        -0.480444     -0.823285     -0.202502
O       4.06046      1.91492     14.55551        -1.675851      0.924393      0.298426
O       4.09420     13.43671      2.23616        -1.267149      1.054823      0.065240
O       3.86942     13.67584     14.66622        -0.908135      0.013073     -0.197408
O       0.05425      1.84770      2.52229        -0.325613      0.235866      0.105286
O      15.49018      2.07391     14.55891         1.174340     -0.817904      0.663691
O      15.59146     13.70459      2.53736         1.205684      0.792791      0.093758
O      15.46520     13.65108     15.03810         1.238664      0.785724     -0.739924
O       4.06751      1.74376      6.60735        -3.051736      0.832754     -0.578321
O       3.89201     13.62319      6.52005        -0.149568      0.192669     -0.253593
O      15.53713      2.15003      6.44265        -0.087116     -0.100659     -0.100099
O      15.29609     13.54688      6.58285         3.031545      0.593698     -0.605908
O       3.71255      1.72907     10.44719        -0.246704      1.801417      0.742375
O       3.88969     13.74295     10.04855        -1.642970     -2.310188      2.317690
O      15.30733      1.54221     10.45613         2.464457      1.040870     -0.569859
O      15.26097     13.72184     10.22107         1.724519     -0.053430      0.633554
O       3.97999      6.02120      2.20883        -1.711535     -1.187091      0.880463
O       3.96790      6.06769     14.83291         0.296437     -0.502356      0.089960
O      15.57724      5.53042      2.26322         1.742189      0.373828      0.679896
O       0.08223      5.85956     14.66818         0.340059     -1.077510      0.400787
O       3.72814      6.01493      6.11542         2.760274      0.176614      0.160443
O       0.02266      5.44179      6.58367        -1.458190     -0.439457     -0.635585
O       3.78629      5.75877     11.05227         0.278639      1.507122     -1.017345
O      15.56506      5.85592     10.79480         1.257479     -0.278143      0.501445
O       3.87103      9.96926      2.25245        -1.105777     -1.122092      0.255382
O       3.88153      9.81612     14.99623        -1.015568     -0.211877     -0.857868
O       0.07104      9.69877      2.69769         2.610304     -0.449138      0.084529
O       0.00229      9.86542     14.56765         1.275472     -0.370451      0.358814
O       3.85074      9.80765      6.26601        -0.551174     -0.672010      0.063668
O      15.56496      9.79200      6.34728         0.785815     -0.222964      0.020625
O       4.02142      9.64942     10.63419        -2.327550      0.616159     -0.209594
O       0.00354      9.47785     10.40485         0.561511      0.914581      1.648708
O       7.88798      1.72544      1.99776         0.308291      0.874199      0.816529
O       7.91806      1.96603     14.78498        -0.484113      0.116316     -0.212361
O       7.97147     13.56685      2.03651        -1.581036      1.178361      1.037442
O       8.05697     13.62905     14.77825        -1.645492      0.365895     -0.794665
O       7.82999      1.78764      6.49303        -1.088400      0.330499      0.084137
O       7.80440     13.76393      6.22667        -1.052868     -0.314846      0.594406
O       7.76644      1.68203     10.86369         2.917411      0.486128     -1.198818
O       7.82784     13.87658     10.30674        -1.612241      0.111558      0.389899
O       7.83452      5.90376      2.09651         1.286159     -0.732092      1.034067
O       7.82768      5.59656     14.49280         0.314969      0.059918      0.949336
O       7.53810      5.71928      6.55891         0.305359      0.894626     -0.521715
O       7.74085      5.90517     10.67743        -2.751233      0.313217      0.533792
O       7.71170      9.75079      2.19925         1.880986     -0.157884      0.052816
O       7.72868      9.78656     14.96380         1.501205     -0.173585     -0.608228
O       7.49036      9.62937      6.46963         3.097993      0.017364      0.225666
O       7.68464      9.79820     10.60972        -0.005972     -0.690932      0.599508
O      11.80867      1.84516      2.01110        -1.903547      0.113544      0.342627
O      11.84386      2.08940     14.75585         0.457972     -1.116604      0.182301
O      11.74031     13.34456      2.25759         0.159843      0.115416      0.561475
O      11.66300     13.40483     14.86401         1.138631      0.677453     -0.045110
O      11.57265      2.17855      6.42612         0.703987     -0.811304     -0.432725
O      11.55968     13.50780      6.24064        -0.757218     -1.153279     -0.036885
O      11.47485      2.25201     10.45641        -0.703248     -0.990338     -0.182959
O      11.66725     13.37168     10.54527        -0.441459     -0.128580     -0.354850
O      11.65331      6.19201      2.45732        -0.229030     -1.034587     -1.418825
O      11.81765      5.82172     14.59670        -1.234690      0.964815      0.089649
O      11.57604      5.76221      6.65186         0.305167      0.762569     -0.481613
O      11.56772      5.62150     10.57252         1.378829      0.078600      0.926628
O      11.80953      9.44112      2.06242        -2.499214      1.253615      0.901809
O      11.92347      9.60340     14.81246        -1.832924     -1.108442     -0.149603
O      11.52848      9.84035      6.45867        -0.022053     -0.353959     -0.413838
O      11.58821      9.92166     10.45408         2.095466     -0.043218      0.418125
O       1.97464      3.90283      2.64183         1.154136      1.310058     -1.108800
O       2.13199      3.89885     14.86302        -0.064325     -0.236273     -0.018508
O       2.16959      0.23545      2.33630         0.354552     -3.569748      0.178822
O       2.17243      0.04487     15.15351        -1.474944      0.717685     -0.904272
O      13.37049      3.84211      2.12511         0.698893      0.624605      0.021169
O      13.81982      3.88451     15.13333        -0.633038     -0.075240     -0.965951
O      13.54187     15.49227      2.49593         0.270573     -0.220802      0.115488
O      13.77410     15.51760     14.75932        -0.591165      3.639503      0.256330
O       2.46719      3.92919      6.26141        -1.516908     -2.168383      0.366297
O       1.67042     15.51053      6.44670        -0.042588      2.325884     -0.106239
O      13.38753      4.01861      6.47143         0.926531      0.448208      0.176321
O      13.34770     15.53837      6.42174         0.651957      0.118855     -0.559152
O       1.91639      3.83505     10.87472        -1.019294     -0.375896     -1.292214
O       1.97118     15.60002     10.92480        -1.038521     -0.922144     -1.519804
O      13.80599      3.56780     10.87809        -0.044994      3.326086     -0.790237
O      13.33308      0.03361     10.33500        -0.937117     -2.549734      0.055884
O       2.01159      7.87320      2.36136        -0.239076      0.054817     -0.194860
O       1.81130      7.73293     14.86614         1.328938      3.062963     -0.930487
O      13.97973      7.78602      2.05022        -0.019355     -1.763875      1.160693
O      14.04815      7.75797     14.69820        -1.515197      0.367883     -0.428689
O       1.41789      7.59260      6.45726         1.254358      1.555502     -0.341735
O      13.83611      7.74473      6.78049        -0.887671     -1.474839     -1.828805
O       1.87180      7.78038     10.63693         0.812764     -1.301157      0.796491
O      13.57483      7.71909     10.66995        -0.367211     -0.000865      1.605422
O       1.96749     11.71371      2.42630        -0.747253      0.439423      0.621320
O       1.85710     11.80906     14.73784         0.325495     -0.587465      0.340532
O      14.21839     11.50472      2.25969        -1.722934      2.337679      0.671654
O      13.64603     11.64451     14.69539         0.187055     -0.522673      0.165527
O       1.91740     11.61270      6.52446        -0.075013      0.421181     -0.070502
O      13.82344     11.46758      6.29374        -1.519429      1.023049      0.572171
O       1.86083     11.50577     10.23824         0.416315      2.110454      0.602291
O      13.75614     11.63356     10.67833        -0.775798     -0.547440     -1.315847
O       6.01327      3.96215      2.26225         0.102447     -0.766448      0.524817
O       5.92110      3.83113     15.05338        -0.324354      0.890945     -1.042343
O       5.60865      0.05686      1.97041         1.500458     -0.956332      2.580621
O       5.89331      0.16957     14.71297         0.497014      0.648163     -0.207346
O       5.63449      3.79584      6.35923         0.494426      1.046989      0.263354
O       5.61876      0.00478      6.47198         1.468406     -1.866785     -0.163957
O       5.71932      3.92285     10.58160         0.615896     -0.102395     -0.007855
O       5.64342      0.08425     10.43391         1.262740     -1.517884      0.206212
O       5.78943      7.74080      2.16096         0.735067      3.013732      0.747497
O       5.96336      7.91329     14.65666        -0.158294     -1.169193     -0.257649
O       5.73221      7.81082      6.42216        -0.092520     -0.991687     -0.655015
O       5.83402      7.91967     10.68448         0.136873     -2.047507      0.016798
O       5.94508     11.77820      2.49498         0.406195     -0.186701     -0.234465
O       6.01694     11.74342     14.42755        -1.012320      0.328214      0.210402
O       5.72376     11.65622      6.06935         1.108577      1.324145      0.823699
O       5.75067     11.86847     10.44585         0.276885      0.166608      0.255248
O       9.92221      3.76388      2.13357        -0.931377      1.309250     -0.029307
O      10.11315      3.77919     14.47166        -1.827951      1.964466      0.879400
O      10.06754     15.58328      2.33240        -0.618725     -0.281959     -0.296277
O      10.05776     15.43866     14.39327        -0.278718      1.193415      0.408495
O       9.61836      3.77863      6.62424        -0.965325      1.615295      0.264899
O       9.85839      0.03387      6.20507        -0.224546     -1.192186     -0.163226
O       9.41394      3.89791     10.56573         0.049630     -1.264474     -0.094782
O       9.88002     15.55087     10.50842        -0.218337      0.491061      0.085799
O       9.51078      7.80554      2.17937         0.455003      0.420711      1.070219
O       9.61251      7.77319     14.52192         0.691882     -0.983614      0.048699
O       9.61761      7.79322      6.27342        -0.928021     -2.285757      0.669109
O       9.85328      7.80771     10.90845        -0.251750     -0.269428     -0.087453
O       9.67131     11.85863      1.70781         0.986765     -4.911549      1.524131
O       9.86969     11.54012     14.71770        -0.393622     -0.472499      0.688806
O       9.40874     11.45410      6.51511         0.482869      2.101486     -0.123990
O       9.39780     11.58407     10.47103         0.892907      1.531159     -0.562369
