  # total energy = -7880.51465740 
CRSYTAL
PRIMVEC
    15.464    0.0000000000000000    0.0000000000000000
     0.0000000000000000   15.464    0.0000000000000000
     0.0000000000000000    0.0000000000000000   17.350608
PRESSURE
-1.92319 -1.91953 0.961516 0.149092 -0.171135 0.024515
PRIMCOORD
320 1
Pb       3.94081      4.03847      4.46498        -0.283491     -0.399906     -0.654395
Pb       3.95836      3.88584     17.32860        -0.297240     -0.317728     -0.588641
Pb       3.70801      0.07080      4.32626         0.465805      0.395525     -0.669071
Pb       3.89038     15.43753     17.32528        -0.135196      0.006420     -0.325857
Pb       0.24398      3.87182      4.41084        -1.060031     -0.187969     -0.347909
Pb      15.41759      3.76184     17.34406         0.018426      0.240766     -0.675816
Pb      15.45738     15.40699      4.25197        -0.265188      0.494292      0.018167
Pb      15.45355     15.42729     17.30581         0.221336      0.059234     -0.147520
Pb       3.87763      3.88243      8.65743         0.396999     -0.070749     -0.362984
Pb       3.81030     15.36945      8.64297        -0.064097      0.508947     -0.504164
Pb      15.38441      3.71224      8.66110         0.068889      0.346920     -0.410369
Pb      15.31709     15.35757      8.57860         0.402246      0.352060     -0.242322
Pb       3.87355      3.66920     12.88810         0.253103      0.628518     -0.450762
Pb       3.98169     15.25549     13.01939        -0.416564      0.392285     -0.465875
Pb       0.07452      3.86991     12.94180        -0.469068      0.096602     -0.703562
Pb       0.03880      0.10805     13.02183         0.061119     -0.055473     -0.687383
Pb       3.69971      7.79212      4.33312         0.120454      0.163493     -0.628928
Pb       3.65759      7.60324      0.05112         0.098531      0.391161     -0.364747
Pb      15.37496      7.72285      4.30223         0.268431     -0.353015     -0.596382
Pb      15.35198      7.67575     17.27752         0.655811      0.162150     -0.919599
Pb       4.00633      7.85277      8.69985        -0.397440      0.029441     -1.098880
Pb       0.13245      7.59981      8.77134        -0.015911      0.072204     -0.534468
Pb       3.89609      7.69477     12.90510         0.120468     -0.171749     -0.473870
Pb       0.03828      7.88405     12.98417         0.234109     -0.443208     -0.648483
Pb       3.77253     11.62135      4.29328         0.430027     -0.542077     -0.791966
Pb       3.86886     11.55896     17.32950        -0.116119      0.028592     -0.429502
Pb      15.29387     11.53229      4.27848         0.483598      0.298902     -0.323446
Pb       0.00891     11.56685     17.27298         0.251100      0.037235     -0.262734
Pb       3.79148     11.63526      8.59019        -0.143516     -0.459365     -0.757120
Pb      15.27326     11.47639      8.64292         0.238549      0.550196     -0.634755
Pb       3.85793     11.49853     13.02325        -0.132723      0.108231     -0.555876
Pb      15.31649     11.72678     12.88834         1.070029      0.084648     -0.228836
Pb       7.62526      3.89852      4.33420         0.802091     -0.609455      0.111562
Pb       7.73326      3.95801      0.01770         0.345487     -0.295971     -0.366298
Pb       7.74316     15.39050      4.27770        -0.028928      0.850736     -0.341324
Pb       7.63964      0.02399      0.09812         0.037776     -0.144132     -0.311082
Pb       7.76017      3.84158      8.64445        -0.148138      0.322779      0.031008
Pb       7.64474      0.13815      8.62971         0.554697     -0.384657     -0.506189
Pb       7.71018      3.68816     12.94627         0.179927      0.552946     -0.806624
Pb       7.85615     15.37997     13.08388        -0.322097      0.074024     -1.228355
Pb       7.64265      7.78633      4.32309         0.125587     -0.231440     -0.645255
Pb       7.73312      7.61020      0.00855         0.235443      0.084398     -0.547452
Pb       7.84948      7.65629      8.71286        -0.150859      0.064466     -0.375690
Pb       7.60730      7.65946     12.96480        -0.131557      0.202459     -0.623201
Pb       7.67631     11.59253      4.21924        -0.061453     -0.146467     -0.254591
Pb       7.65498     11.40552     17.34381         0.109977      0.336956     -0.543571
Pb       7.52875     11.67043      8.62699         0.512617     -0.318526     -0.826236
Pb       7.76039     11.53571     12.99517         0.001498     -0.171322     -0.771105
Pb      11.52891      3.82716      4.36766         0.072864     -0.079841     -0.410700
Pb      11.62047      3.98174      0.04026        -0.531007     -0.807229     -0.805651
Pb      11.65433     15.36906      4.21089        -0.319493      0.493303      0.492772
Pb      11.59631      0.12686      0.11810        -0.048684      0.115287     -1.131537
Pb      11.74587      3.81118      8.75206        -0.616536      0.404518     -0.435566
Pb      11.51512     15.41287      8.59495        -0.161155      0.012523     -0.591614
Pb      11.73410      3.77104     13.12750        -0.324043      0.059254     -0.965142
Pb      11.67737     15.32328     13.10966        -0.237469      0.479123     -0.514289
Pb      11.62713      7.72624      4.24179        -0.170904     -0.365010      0.220520
Pb      11.67546      7.71324     17.22253        -0.929051      0.087258     -0.289353
Pb      11.67030      7.63159      8.74944        -0.151848      0.180815     -0.522191
Pb      11.49981      7.78603     13.09773        -0.022178      0.078968     -1.061921
Pb      11.51961     11.48305      4.23871        -0.165462      0.502769      0.155932
Pb      11.54954     11.54933     17.30164        -0.175643      0.305024     -0.680935
Pb      11.42004     11.43760      8.58548         0.159282      0.311751     -0.362410
Pb      11.64511     11.65640     12.92018        -0.887945     -0.662194     -0.108946
Ti       1.86995      1.98016      2.27413         0.338531     -0.377077      1.907976
Ti       1.98866      1.92755     15.33472        -0.977281     -0.234364      1.165035
Ti       1.90280     13.61867      2.21337         0.182718     -0.783056      1.494268
Ti       1.86438     13.53553     15.28937         0.509568      0.173510      1.207837
Ti      13.49531      1.95971      2.37468         0.019964      0.815100     -0.053019
Ti      13.56573      1.91522     15.34641        -1.138604      0.309125     -0.968178
Ti      13.53528     13.49034      2.21570         0.676213      0.689158      1.305846
Ti      13.50625     13.58434     15.31077        -0.508814     -0.165070      2.351646
Ti       1.98133      1.89525      6.71995        -0.704379     -0.493568     -0.390152
Ti       1.89335     13.53344      6.48800        -0.477182     -0.064911      4.233666
Ti      13.52378      1.98641      6.55217        -0.056736     -0.422386      2.989992
Ti      13.46167     13.53850      6.61898        -0.329025     -0.322417      1.254442
Ti       1.93469      1.92790     10.84189         0.291666     -0.877557      0.207633
Ti       1.96187     13.64177     10.77278        -0.030987     -1.002627      1.463851
Ti      13.46868      1.90458     10.82881        -0.067192      0.132901      1.302507
Ti      13.47175     13.48984     10.85312         0.565073      1.125058      0.766551
Ti       1.82708      5.78038      2.24775         0.368168      0.936688      1.495879
Ti       1.94586      5.75773     15.21464        -0.652120      0.092187      0.757604
Ti      13.42727      5.78421      2.13293         0.947114     -1.116514      3.549197
Ti      13.51151      5.84769     15.22908         0.220618     -0.714830      0.339892
Ti       1.99725      5.78192      6.61923        -0.328200      0.802978      1.009392
Ti      13.61899      5.83988      6.61443        -1.120411      0.302264     -0.592435
Ti       1.87495      5.76104     10.90809         0.164552      0.823329      0.879235
Ti      13.47551      5.83502     11.02482        -0.042355     -0.720518      0.054328
Ti       1.85910      9.75137      2.18513         0.721739     -0.860039      1.148233
Ti       1.94430      9.61696     15.22733        -0.879728      0.356662      0.874955
Ti      13.47823      9.65539      2.14362         0.626012     -0.292307      1.420502
Ti      13.50268      9.78921     15.24332         0.220420     -1.139511      1.931460
Ti       1.87220      9.66399      6.57307         1.039463      0.043120      0.864105
Ti      13.49017      9.64661      6.65152        -0.672628     -0.229446      3.394014
Ti       1.97023      9.75225     10.96063         0.109140     -0.865327     -0.094112
Ti      13.58194      9.64294     10.91805        -1.739719     -0.122709      0.267024
Ti       5.76349      1.98104      2.30272         0.267974     -1.151247      0.613263
Ti       5.88664      1.85058     15.23510        -0.449459      1.606108      1.320905
Ti       5.79992     13.59101      2.30472        -0.373442     -0.296213      1.035890
Ti       5.82174     13.45395     15.25575        -0.915363     -0.094463      0.988157
Ti       5.81633      1.89445      6.59918        -0.437047      0.800651      1.523852
Ti       5.75222     13.59269      6.49193         0.296719     -0.426583      0.021191
Ti       5.80339      1.85642     10.85249        -0.096967      0.061818      0.525876
Ti       5.77310     13.48949     10.94629         0.428353      0.305013      2.768530
Ti       5.72615      5.77052      2.30254        -0.018462      0.749024      2.328384
Ti       5.75932      5.75809     15.24263        -0.149322      0.133312      1.340539
Ti       5.80400      5.77515      6.63737        -0.105850      0.599650      2.006970
Ti       5.79274      5.71539     10.84164         0.093355      0.407165      1.701651
Ti       5.70269      9.67275      2.24603        -0.497321      0.008851      1.369858
Ti       5.68315      9.60610     15.30616         0.476554     -0.524043      0.272830
Ti       5.80978      9.68242      6.52842        -0.844863      0.085148     -0.111470
Ti       5.74466      9.68436     10.81384         0.863881     -1.006576      3.287670
Ti       9.66394      1.96522      2.18982        -0.574419      0.104364      2.681283
Ti       9.66857      1.92999     15.29370         1.002140      0.251596      1.496659
Ti       9.70657     13.57039      2.24616        -1.122680     -0.045508      2.391296
Ti       9.61469     13.49063     15.32000         1.420337     -0.040844     -0.101241
Ti       9.67553      2.02884      6.66350        -0.526108     -1.011709     -0.463892
Ti       9.57136     13.53703      6.51009         1.029790     -0.064308      2.867871
Ti       9.62394      1.88091     10.89609         0.395587      0.783867      1.800020
Ti       9.67904     13.58350     10.96170        -0.499452     -0.334546      2.030738
Ti       9.66074      5.77795      2.42528        -1.247123     -0.217467     -1.518080
Ti       9.61523      5.76433     15.31517         0.652827     -0.583383     -0.008621
Ti       9.68574      5.77761      6.68263        -0.099633      0.539435      0.318058
Ti       9.61029      5.78873     11.03798         0.232772     -0.929948     -0.993506
Ti       9.64046      9.65848      2.20564        -0.607310     -0.189615      2.228266
Ti       9.63195      9.63450     15.23379        -0.095044      0.115889      1.673079
Ti       9.62157      9.60370      6.50714        -0.216259      0.737293      2.451456
Ti       9.59089      9.64990     10.93213         0.399726     -0.464666      1.238734
O       1.80558      2.00064      0.56290         0.042974      0.001667     -1.181271
O       1.88782      1.79445     13.61995         0.060207      0.562838     -1.656102
O       1.69662     13.59533      0.51602         0.364868      0.054316     -1.834514
O       1.86540     13.68751     13.59648        -0.029575     -0.311026     -1.664564
O      13.39404      2.12032      0.59589         0.431389     -0.616386     -0.411028
O      13.42936      1.72539     13.50557         0.454532      0.525685      1.035649
O      13.60817     13.42300      0.49969        -0.179862      0.409605     -0.552634
O      13.51147     13.60187     13.60213         0.062454     -0.155576     -2.111249
O       1.83255      1.77054      4.92474         0.348254      0.334532      0.253143
O       1.88712     13.64746      4.80793         0.237309     -0.073719     -2.078674
O      13.54350      1.97758      4.88450        -0.241256     -0.266024     -2.424664
O      13.47315     13.47021      4.89062         0.104570      0.054162     -1.012685
O       2.07583      1.90480      9.09492        -0.422621      0.313608     -0.189734
O       2.07855     13.51930      9.01707        -0.231665      0.099108      0.894728
O      13.53176      2.07808      9.06866         0.091955     -0.026348      0.073794
O      13.43767     13.48368      9.13048         0.153112     -0.200914     -0.297001
O       1.88921      5.87882      0.52365        -0.002255     -0.206910     -1.068037
O       1.93605      5.71313     13.45339        -0.191291     -0.100177     -0.100003
O      13.45040      5.69114      0.41201         0.319420      0.427357     -0.943776
O      13.40685      5.77828     13.46449         0.342541      0.285237     -0.176702
O       1.96151      5.86106      4.85312        -0.114754     -0.224391     -0.122549
O      13.56942      5.94853      4.82150        -0.107462      0.027433      1.068236
O       1.84596      5.91834      9.15390         0.305649     -0.493836     -0.303029
O      13.44392      5.70825      9.26369         0.363867      0.191092     -0.885023
O       1.88221      9.63906      0.44224        -0.021875     -0.031061     -0.705465
O       2.00227      9.66232     13.46436        -0.237972     -0.166031     -0.279711
O      13.53254      9.67320      0.43037        -0.047803     -0.048272     -0.536435
O      13.36334      9.55262     13.55973         0.454219      0.425378     -1.910149
O       1.93290      9.62926      4.81639        -0.080937      0.298320     -0.424257
O      13.56044      9.53507      4.98554        -0.263173      0.151476     -3.480214
O       2.01478      9.60825      9.19397        -0.416135      0.321228     -0.115426
O      13.37403      9.66783      9.18876         1.029556      0.414253     -0.549131
O       5.79676      1.98935      0.52020        -0.125373     -0.086516      0.226713
O       5.83512      1.93050     13.49923        -0.061150     -0.224292     -0.019911
O       5.86152     13.65929      0.56293         0.023643     -0.210062     -1.383188
O       5.74149     13.46195     13.51379         0.393336     -0.032199     -0.073817
O       5.78363      1.93940      4.88938        -0.147776     -0.050849     -1.304888
O       5.79549     13.57080      4.69376        -0.287228     -0.230922      1.102655
O       5.83161      2.03906      9.10381        -0.326496     -0.692348     -0.402357
O       5.78495     13.40012      9.25358        -0.020180      0.403489     -1.627102
O       5.78992      5.64135      0.60195        -0.017445      0.136810     -1.383080
O       5.71742      5.84499     13.54953         0.154215     -0.274110     -1.292278
O       5.77948      5.75965      4.91013        -0.269858      0.159003     -1.612159
O       5.78852      5.83857      9.10782        -0.094528     -0.196650     -0.355858
O       5.63809      9.72781      0.50999         0.390934      0.041681     -1.266398
O       5.50540      9.55972     13.57068         0.569873      0.477559     -0.298949
O       5.66108      9.75253      4.72547         0.256476     -0.124649      0.129441
O       5.87598      9.53186      9.13039        -0.178814      0.640022     -1.699588
O       9.73664      1.99312      0.45022        -0.116404     -0.368480     -0.272688
O       9.73978      1.93017     13.54102        -0.146954      0.123477      0.007127
O       9.58385     13.63070      0.56475         0.144736     -0.116475     -1.882262
O       9.74987     13.43147     13.50874        -0.491168      0.262078      1.248783
O       9.55592      2.05942      4.89133         0.468734     -0.213035      1.130932
O       9.61125     13.66188      4.80969         0.051542     -0.325406     -1.173949
O       9.60594      1.82966      9.19639        -0.222934      0.062151     -1.601170
O       9.74988     13.56562      9.26854        -0.322811     -0.175408     -0.979058
O       9.53160      5.78699      0.56194         0.186594      0.011755      1.457539
O       9.71842      5.69976     13.53125        -0.273956      0.294159      0.767482
O       9.61240      5.74047      4.91711         0.187626      0.169517     -0.339999
O       9.46983      5.87453      9.20768         0.331247     -0.222200      0.789037
O       9.68837      9.71125      0.50503        -0.252374     -0.146927     -0.919669
O       9.72451      9.59780     13.50207        -0.040780     -0.117832     -0.416461
O       9.64801      9.66662      4.78675         0.212844     -0.209424     -1.363567
O       9.47093      9.71071      9.20319         0.072711     -0.093005     -0.373915
O       3.78227      1.90649      2.68167         0.211476     -0.185327     -0.124289
O       3.77173      1.99685     15.75446         1.743459      0.072311     -0.024513
O       3.84788     13.71263      2.49471        -0.758586     -0.418958      0.409458
O       3.83298     13.42120     15.55717         0.536699      0.359051      0.768054
O      15.35252      1.94266      2.77877         1.140986      0.292285     -0.189343
O      15.43155      1.80276     15.71579        -0.214480      0.352189      0.185748
O       0.01736     13.56948      2.73000        -1.311342     -0.448219     -0.061245
O      15.42032     13.73772     15.62309        -0.610610     -0.365533      0.326285
O       3.86432      1.67507      7.00306        -0.138582      0.900085     -0.102821
O       3.90307     13.70425      6.95570        -0.468462     -0.214034     -0.468354
O      15.45962      1.93376      7.09291        -0.335557      0.592640     -0.087644
O      15.43977     13.43447      6.99240         0.162308      0.004654     -0.009314
O       3.97006      2.01951     11.23653        -1.446289     -0.198175      0.394084
O       3.87227     13.50543     11.39582        -0.074268     -0.336824     -0.300006
O       0.03181      1.79450     11.22018         0.203597      0.294446      0.182931
O       0.05126     13.43883     11.21391         0.082800      0.331628      0.020131
O       3.78677      5.79384      2.69357         0.744313     -0.521155     -0.036442
O       3.82523      5.67956     15.72569         0.557959      0.603400      0.062856
O      15.39012      5.76757      2.65945        -0.257715      0.087963     -0.368248
O      15.44615      5.90241     15.62663        -0.335265      0.268066     -0.033710
O       3.86175      5.77968      7.06991        -0.393354      0.254258     -0.161679
O       0.00197      5.83959      7.00784         0.424872     -0.136909      0.131904
O       3.91499      5.64813     11.32274        -0.703315     -0.047104     -0.322390
O      15.43777      5.76151     11.23293         0.698153      0.066141      0.704172
O       3.76828      9.69801      2.57868         0.009003     -0.039466      0.391910
O       3.78361      9.67833     15.65505         0.237273      0.564326      0.581459
O      15.45755      9.66660      2.65810        -1.502158     -0.119276     -0.053954
O      15.43546      9.53038     15.59489        -0.332409      0.057272     -0.000535
O       3.87824      9.64080      6.98971        -0.636645      0.345544      0.263619
O      15.40204      9.87220      6.94457         0.853578     -0.538700      0.236932
O       3.88676      9.59640     11.33579        -0.097424      0.261563     -0.227226
O       0.02004      9.73582     11.34171        -0.217173      0.068625      0.221333
O       7.76708      1.99805      2.73582        -1.181079     -0.071719     -0.756195
O       7.76657      1.97720     15.73598        -0.386166     -0.753671     -0.520186
O       7.72312     13.45347      2.71936         0.089801      0.204058     -0.232457
O       7.71150     13.53995     15.68555         0.041777      0.228239     -0.181530
O       7.67516      1.99998      7.10999         0.844631     -0.151347     -0.240478
O       7.71367     13.51711      7.06716        -0.420804     -0.320368     -0.551505
O       7.62671      1.75375     11.24632         2.024640     -0.072590      0.752045
O       7.75349     13.70141     11.48162         0.287000     -1.146877     -0.479659
O       7.71459      5.74798      2.82260        -0.960468      0.332063     -0.420831
O       7.68884      5.81609     15.82334         0.152693      0.203085     -0.523868
O       7.62300      5.73939      7.10715         1.048420      0.314622     -0.391793
O       7.69252      5.81578     11.49110        -0.301141     -0.180623     -0.253753
O       7.70112      9.73757      2.63524        -0.118283     -0.312181     -0.252733
O       7.75211      9.68121     15.59111        -0.391365      0.032343      0.345157
O       7.68867      9.82778      6.86491         0.255401     -0.155704     -0.061879
O       7.65064      9.55331     11.45136         0.283813      0.016895     -0.113893
O      11.56724      1.84502      2.80000        -0.673907      0.236025     -0.349977
O      11.67110      2.14764     15.80481        -0.775238     -0.525772     -0.386323
O      11.59653     13.57303      2.70967         0.125102     -0.275177     -0.568417
O      11.58422     13.37615     15.73643        -0.188805      0.188640     -0.012887
O      11.51837      1.91920      7.09420         1.053861      0.150597     -0.455948
O      11.59224     13.54186      7.01711        -0.707002      0.581762     -0.228583
O      11.57774      2.07604     11.12457         0.761202     -0.298537      0.301632
O      11.60658     13.45698     11.46818         0.193422      0.120319     -0.576875
O      11.52062      5.80784      2.75608         0.832563     -0.170657     -0.400177
O      11.57770      5.70351     15.67244         0.059103      0.433079      0.114978
O      11.54542      5.88369      7.07623         0.391566     -0.107612     -0.215539
O      11.58170      5.71606     11.24690        -0.208289      0.024790      0.577498
O      11.57120      9.66936      2.64227         0.652809     -0.048524     -0.179258
O      11.56378      9.64861     15.71217         0.355799      0.544122      0.088895
O      11.50821      9.53217      7.13385         0.295539      0.224647     -0.663476
O      11.56717      9.59310     11.24482         0.054156      0.270831      0.531774
O       1.87029      3.87132      2.76351         0.108069     -0.083248     -0.237037
O       1.83363      3.94873     15.75528        -0.220796     -1.123976     -0.224156
O       1.78704      0.03047      2.65031         0.307061      0.423154      0.073223
O       1.90165      0.01499     15.71973         0.508264      0.075545      0.674153
O      13.41725      3.84722      2.71550        -0.175599      1.215757     -0.171861
O      13.64277      3.87137     15.55340         0.104149      0.031590      0.100942
O      13.49991      0.02140      2.67123        -0.013232     -1.064362     -0.195632
O      13.24811     15.44791     15.75129         0.690683      0.501049      0.179494
O       1.97159      3.87370      6.91752         0.004874     -0.251924      0.242032
O       1.74935      0.01697      7.19227         0.827319     -0.955482     -0.860701
O      13.47897      3.91640      6.88337         0.091854     -0.100048      0.583773
O      13.56295      0.06416      7.07696        -0.346874     -0.735526     -0.532393
O       1.90215      3.78095     11.23758        -0.066872      0.524516      0.432588
O       2.13756      0.01609     11.33144        -0.604561     -0.415393     -0.491800
O      13.67374      3.86075     11.33757        -0.372168     -0.847049      0.445027
O      13.52498     15.44455     11.18508        -0.353398     -0.293280      0.214761
O       1.93704      7.71468      2.63119        -0.322177      0.033435      0.043190
O       1.98258      7.73108     15.68952        -0.076564     -0.454355     -0.109288
O      13.46218      7.67371      2.61482         0.095342      0.981221     -0.503263
O      13.37389      7.76617     15.64412         0.511257     -0.579849      0.143600
O       1.96924      7.79605      6.94693        -0.644577     -0.581352      0.233789
O      13.51796      7.74256      7.14005         0.381024     -0.223191     -0.075468
O       1.81798      7.69662     11.31073         0.423342     -0.119903      0.273723
O      13.57029      7.78647     11.20888         0.225152     -0.599745      0.657476
O       1.86647     11.63223      2.48761         0.225846      0.233774      0.575851
O       1.72132     11.60811     15.61295         0.389939     -0.304237      0.141585
O      13.54700     11.60513      2.62929        -0.307392     -0.855192      0.137903
O      13.63735     11.63251     15.71548        -0.226550     -0.239506     -0.468554
O       2.09519     11.62956      6.91743        -0.330206      0.427926     -0.273033
O      13.39012     11.59727      7.03288         0.204836     -0.364484      0.082300
O       2.08750     11.56755     11.28327        -0.521653      1.122736      0.069753
O      13.54207     11.61801     11.36116        -0.119496     -0.294838      0.098529
O       5.67486      3.78460      2.87454         0.228600      1.328626     -0.690694
O       5.85745      3.87480     15.60410        -0.368337     -0.627443      0.316538
O       5.82556      0.02581      2.61438         0.295180      0.625917      0.207933
O       5.69637      0.03611     15.70118         0.369019     -0.784898     -0.147199
O       5.74158      3.88345      7.01530        -0.579775     -0.538168     -0.088341
O       5.86438      0.03354      6.93187         0.331652     -1.365692      0.244264
O       5.95951      3.78784     11.24650        -0.340279      0.550213      0.353588
O       5.79448     15.37059     11.46721        -0.478551      0.358231     -0.574227
O       5.65640      7.72641      2.56330         0.757774     -0.358007      0.263004
O       5.81137      7.76303     15.58530        -0.250635     -0.936777      0.818083
O       5.73023      7.85016      6.94210         0.523552     -1.380960     -0.095169
O       5.71770      7.69663     11.32012         0.188666     -0.277233     -0.053761
O       5.61572     11.59433      2.62339         0.466014      0.494229      0.083017
O       5.79684     11.55106     15.74122         0.034280      0.719431     -0.025791
O       5.65394     11.61577      7.02095         0.440554      1.045785     -0.154567
O       5.93084     11.51983     11.33450        -0.423827      0.829654     -0.044426
O       9.59559      3.80945      2.78065         0.784588      0.803196     -0.488704
O       9.63102      3.89103     15.81580        -0.279692      0.094551     -0.571302
O       9.47545      0.04841      2.67856         0.968635     -0.603235     -0.535782
O       9.83152      0.00422     15.64114        -0.396645     -0.040382      0.071931
O       9.70962      3.89899      7.14402        -0.380324     -0.160688     -0.145010
O       9.61036      0.00248      7.10665        -0.172906     -0.210196     -0.438465
O       9.54181      3.78304     11.33198        -0.271437      0.077591      0.100405
O       9.80389     15.45582     11.43668        -0.284470     -0.030894     -0.017747
O       9.61433      7.68734      2.71646        -0.128377      0.887435     -0.067582
O       9.70159      7.72651     15.85489        -0.244482     -0.204872     -0.771346
O       9.52813      7.74968      7.03423        -0.224526     -0.401964     -0.323760
O       9.63406      7.61930     11.35079         0.054920      1.276340      0.460250
O       9.66266     11.61855      2.69916         0.338694     -0.289909     -0.258479
O       9.69666     11.58387     15.80387        -0.673280     -0.025957     -0.355625
O       9.79293     11.55753      6.90632        -0.580425      0.781064     -0.270727
O       9.57960     11.48773     11.46158         0.098258      1.139597     -0.329489
