  # total energy = -7825.08463525 
CRSYTAL
PRIMVEC
    15.6080000000000005    0.0000000000000000    0.0000000000000000
     0.0000000000000000   15.6080000000000005    0.0000000000000000
     0.0000000000000000    0.0000000000000000   16.6239999999999988
PRESSURE
5.10619 5.22589 0.699439 0.229972 -0.015142 0.286116
PRIMCOORD
320 1
Pb       4.32833      4.06390      4.28558        -0.337578      0.333459      0.914155
Pb       4.13321      3.76040      0.10020        -0.416935      0.378771     -1.100858
Pb       4.34430      0.14236      4.28794        -0.924001     -0.720216      0.439395
Pb       3.86949      0.11908      0.60125         0.033369      0.093286     -2.764159
Pb       0.52413      4.07531      4.28356        -1.526875     -2.527971     -0.585235
Pb       0.09565      3.94418      0.40874        -0.286643     -2.489564     -1.673108
Pb      15.29329      0.00802      4.27337         1.916173      0.358197      0.835400
Pb       0.14664      0.03709      0.12365        -0.179422      0.155599     -1.059137
Pb       4.00400      3.66296      8.23833        -0.140132      1.362083     -0.442002
Pb       3.94219      0.03669      8.92136        -0.108923     -1.211694     -1.411197
Pb      15.44411      3.76706      8.19906         0.293818      1.236271      0.324169
Pb      15.01621     15.42278      7.95317         1.066387      0.953544     -0.300127
Pb       3.71832      3.85706     12.25178        -0.601999      1.434268      1.212841
Pb       3.68150      0.51455     12.43354         1.034517     -2.089026      0.443287
Pb       0.27595      3.80844     12.62769         0.093380      0.629609     -0.202921
Pb      15.15782     15.32255     11.89188         1.054547      0.542361      1.007605
Pb       3.86771      8.29217      4.19493         0.185119     -1.539113      0.692740
Pb       3.94442      8.00333      0.11612        -1.006707      0.451407     -0.642468
Pb       0.26818      7.61817      4.22851        -2.396022      1.436218     -1.821531
Pb       0.18286      8.21262     16.55126         0.345308      0.029924      0.455165
Pb       4.20216      7.86479      9.01473        -0.323635     -0.395552     -1.800630
Pb       0.06506      7.77232      8.72552        -0.687124     -0.366191     -0.498507
Pb       3.75496      7.37224     12.99911         0.193473      1.177545     -1.690775
Pb       0.08188      7.44345     12.73763         0.055214     -0.279641     -1.108107
Pb       3.56448     12.16810      4.93262         0.856870     -1.037613     -2.243115
Pb       3.28009     12.06430      0.50083         0.796949     -2.096184     -2.990747
Pb       0.16757     11.62871      4.34612        -0.474435      0.221880      0.446303
Pb      15.39671     11.79654     16.31756         0.413536     -0.341637      1.346241
Pb       3.59401     11.49269      8.57868         1.979082      0.843314     -1.358905
Pb      15.30673     11.51842      8.21253         0.552832     -0.554430     -0.452920
Pb       4.34649     11.86691     12.71694        -1.638755     -0.753631     -2.021235
Pb      15.11379     11.91225     12.45270         1.482930     -0.829154     -0.328549
Pb       8.00497      3.99722      3.62729         0.006810      0.140691      1.655621
Pb       7.77440      3.92632     16.45031         0.645834     -0.427753     -0.500311
Pb       8.45690     15.57645      4.12059        -2.026198     -0.149117     -0.022645
Pb       7.58792     15.30706     16.58995         0.362102      1.318119     -0.292473
Pb       7.49088      4.03535      8.08765         0.614996      0.321033      0.304290
Pb       7.65062      0.01560      8.40689         0.022534      0.281586     -0.326560
Pb       7.96945      3.93056     12.50113         0.651306      0.203698     -0.201231
Pb       8.11354      0.21875     12.97538        -0.176364      0.182140     -0.932945
Pb       7.51121      7.88099      4.06091         1.092868     -0.655302      0.193478
Pb       7.48922      7.90371      0.28690         1.844305      0.380285     -0.775531
Pb       7.72971      8.06425      8.34147         0.726068     -0.923858     -0.487549
Pb       7.59919      7.93299     12.73585        -0.550991     -0.660631     -1.144076
Pb       7.63630     11.89348      4.06399         0.041013      0.312425      0.769562
Pb       7.94218     12.00946      0.03364         0.270886     -1.583058      0.212085
Pb       7.60287     11.41815      8.09208        -0.184507      1.088617      0.234370
Pb       8.06307     11.49382     12.92574        -0.982818      1.079736     -1.328312
Pb      11.44758      3.64862      3.89307         0.125233      1.463898      0.167016
Pb      11.97436      3.76243     16.54912         0.038755     -0.957509      0.348743
Pb      11.81521     15.15130      4.42804         0.128316     -0.040452     -0.950256
Pb      12.35450     15.60723      0.48157        -0.751866     -1.376512     -1.414311
Pb      11.58841      4.13955      8.67442        -0.138617     -0.483474     -0.973752
Pb      11.61946      0.39181      8.12231        -0.286408     -0.717582      0.068144
Pb      11.57433      3.33306     12.61981         1.894548      2.549086     -0.933956
Pb      11.46901     15.07797     12.14056         1.145331      1.317746      1.115262
Pb      11.08519      7.47121      4.25749         0.910709     -0.301707      0.001996
Pb      12.17567      7.89048      0.11349        -2.494016     -1.441931     -0.854659
Pb      12.08163      7.45153      9.05713        -0.606146      1.874966     -1.822753
Pb      11.49502      7.59295     12.85254         0.037174      1.407353     -2.673434
Pb      11.32820     11.38114      3.99190         0.958402      2.303340      0.644382
Pb      11.92413     11.45329     16.27225        -0.675714     -0.062434      1.046099
Pb      11.04191     11.59973      8.29981         2.875184     -1.812186      0.096349
Pb      11.58034     11.50650     12.25962         0.850594      0.224181      0.048291
Ti       2.02958      2.14510      2.11258        -1.886307     -0.760718      0.753631
Ti       2.06737      1.98296     14.55048        -0.047641     -0.798173      2.173564
Ti       1.83238     13.78271      2.21560        -0.916954      0.153339      2.660387
Ti       1.91790     13.66474     14.51072         0.050406      0.751443     -0.432288
Ti      13.53557      1.88315      2.44385         1.174887      0.491577     -1.404303
Ti      13.90710      1.85124     14.28868        -2.367326     -2.022352     -0.980965
Ti      13.84245     13.32461      2.44976        -2.678518     -0.250186     -1.392156
Ti      13.73604     13.68807     14.68363        -1.011370      1.877245      0.952314
Ti       2.20089      1.89701      6.48189        -3.521966      0.120801     -3.160718
Ti       1.69792     13.83299      6.51433         0.363871      0.896270     -1.364829
Ti      13.53860      2.37844      6.25147         0.280790     -0.563513     -0.241492
Ti      13.45804     13.22588      6.17359         0.959618      0.033241      0.553489
Ti       1.69092      1.68351     10.30398        -1.228461      1.064377      0.229960
Ti       1.94047     13.42454     10.30468        -2.160010      0.203206      1.817813
Ti      13.48193      1.88963     10.18949        -0.161970     -0.955915      2.151814
Ti      13.60867     13.37508      9.96159        -1.094144      0.145346     -1.432095
Ti       2.12986      5.90098      1.97971        -0.363193      0.826149      1.373463
Ti       1.86226      5.86385     14.88827         1.077177     -1.189960     -3.088448
Ti      13.84031      5.62618      1.84098        -1.485779      1.989122      1.275790
Ti      13.68549      5.58040     14.49335         0.316990     -0.001675     -0.806253
Ti       1.71786      5.86742      6.11873         2.610401     -1.225790      1.868796
Ti      13.38056      6.05700      6.01560         0.317504     -3.580927      2.818395
Ti       1.85231      5.75064     10.25943         2.964158     -0.448371      0.388027
Ti      13.63246      5.47715     10.62868         1.490497      0.982154      0.538226
Ti       1.89086      9.87314      2.33769        -1.560589      0.023785     -0.969951
Ti       1.92328      9.89246     14.15575         0.871366     -1.976686     -1.206565
Ti      13.71024      9.39422      2.27528         0.049567      0.829207      1.124697
Ti      13.72450      9.46100     14.31259        -1.009316      1.713257     -1.108960
Ti       1.76595      9.55832      6.46215         0.638545      1.222514     -3.024195
Ti      13.42051      9.51007      6.14710         0.045613      1.922265     -0.015112
Ti       2.16477      9.59256     10.41665        -2.331445      1.048473      1.632549
Ti      13.81254      9.71022     10.32464        -0.435493     -1.291583     -0.388767
Ti       5.76582      1.94434      2.13055         2.688664     -0.173761      1.179654
Ti       5.95327      2.14839     14.37197         0.001364      0.244462     -0.365005
Ti       5.72775     13.70272      2.02111         1.785529      0.234508      2.282823
Ti       5.70982     13.92078     14.33729         0.666532     -0.044795     -1.166010
Ti       6.07110      1.85610      6.24156         0.143686      1.179099     -1.153209
Ti       5.85147     13.82513      6.25697         0.342537     -1.092152     -0.073186
Ti       5.77576      2.16786     10.37351         3.055709     -2.736147     -0.078913
Ti       6.01308     13.66502     10.24929         0.194651      0.216258     -0.611724
Ti       5.93162      5.82719      1.93445         0.201309      0.487498      1.808399
Ti       5.98469      5.93033     14.50287        -0.353802     -0.745362     -0.678751
Ti       5.65107      6.18491      6.22197        -0.323006     -1.144645     -1.195768
Ti       5.64315      5.82400     10.51870         1.706372      1.664506      0.095513
Ti       5.63822     10.03663      1.93508         1.305888     -0.901133      0.846908
Ti       5.77042      9.93106     14.69832        -0.982445     -0.069239     -2.386688
Ti       5.71873      9.82417      6.06795         0.076629      1.076923      0.065131
Ti       6.00282      9.96444     10.38149        -0.290260     -1.263503      2.219054
Ti       9.70335      1.69881      1.78193         0.185940      1.561832      0.950423
Ti      10.00357      1.86213     14.82900         0.297946     -0.450733     -3.238596
Ti       9.77638     13.67151      1.79292         1.628612     -2.125207      1.424689
Ti       9.99581     13.56594     14.53692         0.764036      2.039498      0.576265
Ti       9.86098      2.02710      6.15748        -2.788691      0.331469     -0.580633
Ti       9.67773     13.40627      6.14355        -0.833845      1.030800     -1.491817
Ti       9.60223      2.00700     10.19917         0.593339      0.762144      0.979371
Ti       9.79358     13.69558      9.93786        -1.116729     -0.355496      0.639977
Ti       9.90312      5.87817      1.72593         0.369115      1.068910     -1.584854
Ti       9.90586      5.66169     14.49312        -1.659192     -0.664812     -0.465159
Ti       9.62909      5.76583      6.55017         0.319791      1.412944     -2.258548
Ti       9.42622      5.97054     10.33396        -1.219892     -1.358636      2.283372
Ti       9.80632      9.63134      2.10873        -0.764795      1.762172     -2.047546
Ti       9.57278      9.51679     14.64857         3.258972     -0.565041      3.175535
Ti       9.69575      9.69566      6.10974        -1.294994     -2.725946     -1.002140
Ti       9.80861      9.79700     10.62106        -0.523479     -0.910330     -2.719593
O       2.12986      2.30659      0.17470        -0.314254     -0.913580      0.947326
O       1.73050      1.52829     12.84612         0.733804      0.878061     -1.815832
O       1.44535     13.72729      0.45023         1.464217     -1.510704     -1.196799
O       1.57404     13.47445     12.80734         0.823418      0.417412     -0.388300
O      13.72204      1.88843      0.61448        -0.143161      0.496591     -0.694147
O      13.34206      1.44520     12.39873         1.177588      0.843591      0.643544
O      13.72276     13.52587      0.25261         0.439197      0.303872      0.169048
O      13.62592     13.56642     12.86383        -0.169902      0.044763     -1.132761
O       1.83401      1.64681      4.55585         0.595508      1.221017     -0.263956
O       1.87373     13.85958      4.50750        -0.075897     -0.433073     -0.091025
O      13.48064      2.13493      4.39623         0.185301     -0.166757     -0.757778
O      13.84486     13.10456      4.41433        -0.091363      1.961765     -3.130283
O       1.87718      1.88059      8.53268         0.611319      0.345413      0.294949
O       1.62375     13.80896      8.66974         0.773898      0.709006     -4.371189
O      13.56761      1.99153      8.40940        -1.505486     -0.360008     -0.677304
O      13.40352     13.14687      8.10826         0.674591      0.777277      2.331842
O       1.83406      5.46890      0.06076         0.521924      1.121771      0.474307
O       1.98819      5.70386     12.71143        -0.056871      0.745613      1.222750
O      13.65790      5.58219     16.55879         0.366505      0.829418      0.896699
O      13.76294      5.64831     12.59015         0.751160      0.076479     -0.200242
O       1.83815      5.99179      4.02250         0.291813     -0.478812      0.433083
O      13.45946      5.76835      4.37184         0.131080      0.459633     -2.626650
O       1.97299      5.74631      8.43470        -0.382581     -0.314088     -0.567573
O      13.87737      5.74323      8.75942        -0.228027      0.171610      0.804824
O       1.94107      9.83559      0.50285        -0.059928     -0.178283     -0.995015
O       2.04791      9.71721     12.24606        -1.034155      0.261450      2.395751
O      13.56602      9.52179      0.27206         1.585146      1.263817      0.497516
O      13.67868      9.91340     12.43345         0.262959     -0.764909      1.644607
O       1.97177      9.67973      4.26302        -0.209101     -0.246044     -0.051584
O      13.38223      9.16508      4.37735         1.151104      0.914496     -1.422320
O       2.28331      9.41499      8.08371        -0.311679      0.252519      3.240413
O      13.57529      9.69706      8.33262         0.637307     -0.179475      1.675252
O       5.91069      2.02366      0.35370        -0.155316      0.157158     -1.160355
O       6.05167      2.26671     12.58468        -0.755256     -0.677676     -0.849573
O       5.91249     13.83132      0.19054        -0.210295     -0.487073     -1.329335
O       5.52554     13.93957     12.41201         1.189056     -0.662375      0.879218
O       6.15796      1.82832      4.21166        -1.346298      0.186699      0.876115
O       5.90114     13.86071      4.18506        -0.352117     -0.069104      0.617653
O       5.97596      2.16547      8.40563        -1.065845     -0.632959      1.456214
O       6.06033     13.70553      8.26922        -1.429537     -0.000073      0.510306
O       6.08223      5.86366      0.15388        -0.455031      0.333829     -0.401987
O       5.86308      6.13125     12.62717        -0.442168     -1.408580      0.450149
O       5.92070      6.12843      4.25379        -0.078404     -0.346014      0.078992
O       5.31740      5.73731      8.66979         0.505652     -0.195448     -0.821522
O       5.59705     10.05442     16.59189         0.378588     -0.592513      2.094095
O       6.28725      9.94804     12.72359        -1.932456     -0.180975      0.413481
O       5.93156      9.77459      4.21296        -0.238124      0.013904      0.523955
O       5.83231      9.77685      8.57885         0.175900     -0.115558     -1.357803
O       9.81465      2.14235     16.58426        -0.294608     -0.617241      2.639634
O      10.12592      1.90506     12.69114        -2.948625     -2.205389     -1.013692
O       9.70866     13.96471     16.60362        -0.612732     -1.133712      0.505804
O       9.70270     13.41595     12.71694         0.971146      0.972014     -0.191702
O       9.62164      2.18658      4.11968         0.625584     -0.750590      1.391011
O       9.78172     13.43117      4.16102        -0.926075      0.287947      1.091776
O       9.55229      1.86651      8.39924         1.170166     -0.314328     -1.431551
O       9.92407     13.67280      8.08735        -0.025694      0.804576      0.928824
O       9.67467      5.91213     16.34656         0.741815     -0.456929      1.701211
O       9.97343      5.53715     12.28537        -1.321668      0.856511      0.929782
O       9.48015      5.77898      4.52850         0.823548      0.380486      0.725626
O       9.33159      5.99910      8.42101         1.260906     -0.656800      0.309550
O       9.91130      9.46651     16.51243         0.481584      0.018826      0.083431
O       9.91000      9.74928     12.69480        -0.822117      0.970249     -1.066215
O       9.42459      9.81835      4.17672         0.641703      0.106330     -0.003493
O       9.51630      9.53813      8.75206         0.598067      0.658422     -0.247496
O       3.93784      2.34673      2.17302         0.681500     -2.049727      0.442407
O       3.99468      2.11522     14.41793        -0.023790     -0.957982      0.267521
O       3.91099     13.70008      1.90177        -0.343088     -0.258393      1.073376
O       3.83619     13.30087     14.40327        -0.754869      2.491630      1.360800
O       0.14023      1.95580      2.34024        -0.049207      0.230285     -0.014993
O       0.03969      1.65375     14.46954         0.290470      1.092706      1.017001
O       0.02017     13.73721      2.49646         0.534349      1.461953      0.659384
O       0.00604     13.83083     14.81681        -0.164646     -1.008456      0.463866
O       3.90854      1.89429      6.64962         2.421337     -0.267673     -0.351083
O       3.95049     13.89987      6.25590        -0.719867     -0.449892      0.953063
O      15.23390      2.03068      6.78599         1.486899     -0.546973     -1.664227
O      15.51048     13.57838      6.35455         0.133919      0.497646      0.766453
O       3.90638      2.06520     10.60418        -0.262503     -1.004103     -0.523139
O       3.69134     13.39811     10.37397         3.443431      1.172711     -0.284379
O      15.47103      1.63938     10.27779         0.338556     -0.176394      0.614743
O      15.56087     13.44789     10.43095        -2.442391      0.044256      0.741776
O       3.99503      6.02897      1.99583        -0.532708      0.136867     -0.305528
O       4.01741      5.97129     14.75915        -1.349290     -0.129505      0.932621
O       0.03968      5.24325      2.20705        -0.903805      2.419323     -0.421833
O       0.04610      5.52614     14.42231         0.919114      1.282351      1.206845
O       3.81133      5.87135      5.76163        -0.485875     -0.159317      1.518046
O      15.51192      5.62916      6.37790         0.883354      0.725557     -0.836226
O       3.80904      5.92366     10.91319        -0.176360     -1.197449     -0.824056
O       0.22594      5.75512     10.83339        -2.945821      0.555289     -0.444903
O       3.86156      9.58938      2.23834         1.296164      1.081312     -0.704951
O       3.80009      9.63268     14.52480         1.918421      0.529351      0.171862
O       0.02829      9.56334      2.53243        -1.036697      0.171837     -0.353663
O       0.05974      9.62413     14.68780        -1.135752      0.397371     -0.482252
O       3.80239      9.89420      6.07154         1.619134      0.316608     -0.020437
O      15.58943      9.78983      6.40651        -0.352532     -0.544410     -0.047492
O       3.90615      9.96588     10.60132         2.141961     -0.470140     -1.179632
O       0.19819      9.60754     10.26720        -1.778301      0.168261     -0.475774
O       7.89644      2.06534      2.15810         0.368659     -0.523577     -1.068969
O       8.01485      2.37412     14.55592        -1.795367     -2.235428      0.096584
O       7.86200     13.72163      2.11691         1.514043      0.033465     -0.846200
O       7.65174     13.92661     14.46277        -0.014090     -0.756096      1.029678
O       7.79039      1.57222      6.56530         1.205181      1.037083     -1.348588
O       7.83742     13.84902      6.23445         1.537429      0.089841     -0.232228
O       7.92822      1.71181     10.62643        -2.270381     -0.470866      0.172204
O       7.83483     13.85703      9.99539         1.133599     -0.985874      1.880482
O       8.03122      5.84722      2.11747        -2.568438      1.434515     -0.450422
O       7.79831      5.67543     14.27711         1.129339      0.207439      0.799725
O       7.39563      5.89916      6.61481         1.062642      0.443610      0.063398
O       7.55361      5.97770     10.42030         2.056986     -0.313254      0.380315
O       8.02830      9.70016      1.57999        -1.792109      1.115749      1.105260
O       7.85064     10.02576     14.70009        -1.729984     -0.488182      0.977068
O       7.79396      9.69402      6.41650        -2.854773      0.059204      0.364579
O       7.79164     10.04154     10.66306         0.999181     -1.006816      0.096979
O      11.54002      2.13721      2.05249         0.849856     -0.616263      0.775716
O      11.84641      2.19894     14.63941         0.136712     -0.555396      1.451489
O      11.79674     13.55109      2.52719         0.398233     -0.273552     -1.161955
O      11.88823     13.69948     14.95724        -2.229025     -0.986181     -0.794043
O      11.58316      2.33084      6.41227         0.434134     -1.367188      0.506279
O      11.70394     13.15767      6.04971        -2.769896      0.880146      0.017071
O      11.64026      2.17413     10.23066        -0.013690     -0.629029      0.106234
O      11.63298     13.10726     10.35825         1.099631      1.668428      0.380062
O      11.68746      6.29672      2.09366         0.039656     -2.027190     -0.107836
O      11.80344      5.92574     14.11952        -0.451005     -1.917321      3.436945
O      11.58224      5.81681      6.76268        -1.269530      0.533606     -0.665874
O      11.83530      5.71177     10.45217        -0.860640     -0.700533      0.188085
O      11.76173     10.00783      2.39118         1.686478     -2.847198     -1.913138
O      11.77629      9.36098     14.65037         1.531748      0.827789     -0.408260
O      11.51543      9.95053      6.00668         0.280548     -1.031325      1.326360
O      11.79120      9.92346     10.45269        -1.473199     -0.310045      0.529906
O       2.04601      3.96547      2.35669         0.561731     -0.346681      0.060724
O       2.16939      3.81534     14.47868        -1.254248      0.771380      0.281187
O       2.32205     15.54634      2.13925        -1.111187      2.527148      0.678827
O       2.03799     15.57359     15.27835         0.714908     -0.384482     -1.177198
O      13.35348      3.97638      2.15421        -0.156870     -1.328267      0.442598
O      13.79636      3.75342     14.73805        -0.136882     -0.221483     -0.265495
O      13.62224     15.60437      2.51456         0.012847      0.540415      0.002647
O      13.61312      0.08118     14.91525         0.274146     -0.461281      0.084320
O       2.05219      3.88055      6.09828        -0.219230      0.613211      1.037999
O       1.67144      0.16691      6.53923        -0.358005     -2.664165      1.028846
O      13.48883      4.11565      6.44028         0.430571     -0.582908      0.599863
O      13.39063     15.41652      6.21635         0.265194      0.026662      0.527494
O       1.80875      3.69667     10.84417         0.632019     -0.617730     -0.811728
O       1.86194     15.43050     10.78919         1.092299      1.755342     -0.590956
O      13.77408      3.63706     10.50458         0.425857      1.321357      0.339709
O      13.45625     15.18892     10.12674        -0.360451      2.074939      0.420321
O       1.67489      7.71538      1.82359         1.209113     -1.530592      0.909211
O       1.92104      7.95942     14.66008        -0.379364     -3.028005      0.928021
O      13.75593      7.55371      2.11798         0.722625      1.464272     -0.374098
O      13.90433      7.60948     14.54361        -0.239255      0.392125      0.041514
O       1.58687      7.72226      5.97926         1.519917     -0.077672      1.902741
O      13.55120      7.72991      6.51803         0.566153      1.015404      0.963075
O       2.13302      7.72200     10.23976        -0.880159     -0.370693      0.424018
O      13.75299      7.81793     10.71762         0.003348     -0.242802     -0.938362
O       1.98641     11.81731      2.31341        -0.098102     -0.769719      0.866739
O       1.89940     11.46979     14.81736        -0.399017      3.786878      0.436202
O      14.21857     11.65104      2.15454        -0.974396     -1.547105      0.194914
O      13.70408     11.51213     14.70097         0.176598      0.383172     -0.049506
O       1.93159     11.86819      6.41337        -0.298408     -0.601655      0.982151
O      13.76707     11.43458      6.08963         0.243195     -1.087479      0.893903
O       1.95665     11.55998      9.94536        -1.541393     -1.103659      0.982216
O      13.77072     11.60929     10.34503         0.510898     -0.836482      1.141471
O       5.75520      4.02240      2.24919         1.077620      0.473631     -0.296919
O       5.91377      3.98457     14.86467        -0.404309      0.187537      0.320809
O       5.85304     15.57083      2.25321        -0.719117      1.993434     -0.705341
O       5.98966      0.29379     14.51601        -0.393996     -1.986719      0.586375
O       5.89869      3.78439      6.23974        -1.067634      0.113081      0.187406
O       5.69910      0.03067      6.44529         0.280791      1.154456     -0.020308
O       5.96536      3.88553     10.45066        -0.319034      1.152598      0.503045
O       5.93138      0.03544     10.17676        -1.421176      0.041182      0.378884
O       6.03721      8.08096      2.23252        -0.548179     -0.253112     -1.701970
O       5.96076      7.86285     14.54810         0.317131      1.276924      1.346686
O       5.40170      7.97002      6.52518         1.259980      0.232051     -0.440204
O       5.89961      7.79380     10.58211        -0.696063      1.060479     -0.279502
O       6.09415     11.86560      2.37877        -1.423525     -2.377255     -1.576366
O       5.72211     11.88970     14.45069         1.990060     -0.914018      1.103446
O       6.14740     11.87941      6.06365        -1.188633     -1.882264      0.754676
O       5.87746     11.76504     10.13606        -0.111156      1.757555      1.261368
O       9.84903      4.15359      2.06964         0.451954     -1.675621      0.061915
O       9.79488      3.79394     14.51072         1.416011      3.078414      0.205966
O      10.11743     15.53372      2.05635        -1.391530      0.783812      0.318134
O       9.97103      0.03713     14.48415        -0.815632     -0.664288      0.352167
O       9.57243      3.87812      6.34518        -0.826466     -0.023654      0.700098
O      10.02165     15.59503      5.78842        -0.112596      0.511082      2.029864
O       9.30236      3.85195     10.36701         1.472224      0.337649     -0.714979
O      10.17315     15.51464     10.35636        -0.857180     -0.740350     -0.662104
O       9.92405      7.87210      2.34257        -1.289132     -1.207257     -0.477908
O       9.51298      7.71482     14.48491         0.421776     -0.471211     -1.110187
O       9.37504      7.81293      6.33739         1.378359     -0.066205     -0.098888
O       9.85724      7.71027     10.60068        -0.156796      1.287213      0.238907
O       9.97985     11.55361      1.72674        -1.440538      2.724940      0.094077
O       9.71450     11.81461     14.81474         0.343294     -1.108485      0.399742
O       9.46274     11.54429      6.50625         0.092339      1.677406     -0.527712
O       9.71812     11.76575     10.21415        -0.929847     -0.704112      1.039832
