  # total energy = -7882.06982378 
CRSYTAL
PRIMVEC
    15.464    0.0000000000000000    0.0000000000000000
     0.0000000000000000   15.464    0.0000000000000000
     0.0000000000000000    0.0000000000000000   17.350608
PRESSURE
-1.63827 -1.58336 0.973128 0.155666 -0.078296 -0.033681
PRIMCOORD
320 1
Pb       3.91892      4.05606      4.44623         0.355294     -0.690819     -0.815257
Pb       3.92811      3.89984      0.00646         0.027315     -0.508450     -0.743273
Pb       3.70326      0.04543      4.32510         0.553411      0.185741     -0.231235
Pb       3.86567     15.41399     17.32679         0.218982      0.199136     -0.744962
Pb       0.23261      3.87474      4.38755        -1.328208     -0.312078     -0.174339
Pb      15.42752      3.78672     17.34315         0.048893      0.265613     -0.769721
Pb       0.01068     15.40942      4.26280        -0.327094      0.086787      0.565145
Pb       0.00381     15.42504     17.30394         0.067119      0.163894     -0.148430
Pb       3.87877      3.87785      8.65199         0.457409     -0.032579     -0.144801
Pb       3.80575     15.38357      8.64620        -0.006097      0.069890     -0.601969
Pb      15.40053      3.71774      8.67258         0.084247      0.559066     -0.400398
Pb      15.32434     15.35766      8.57186         0.838351      0.436551     -0.157442
Pb       3.88832      3.67154     12.89658         0.078679      0.977843     -0.467139
Pb       3.96410     15.26472     13.00695        -0.211112      0.381726     -0.449797
Pb       0.07141      3.84378     12.93662        -0.390529      0.348777     -0.600698
Pb       0.03741      0.09570     13.01794        -0.103066     -0.005312     -0.564130
Pb       3.69556      7.78665      4.33301         0.505291      0.184528     -0.145208
Pb       3.67082      7.60442      0.04115         0.353056      0.305587     -0.335635
Pb      15.38844      7.72173      4.30172        -0.083501      0.288017     -0.628631
Pb      15.35613      7.67412     17.26760         0.518596      0.030498     -0.539940
Pb       3.99699      7.84344      8.68621        -0.193389     -0.119385     -0.698560
Pb       0.11458      7.60745      8.74885         0.033174      0.239627     -0.560771
Pb       3.89094      7.70025     12.90951         0.065406     -0.551544     -0.411096
Pb       0.03036      7.87324     12.99773         0.292539     -0.781567     -0.677577
Pb       3.74141     11.60838      4.27808         0.282468     -0.040804     -0.315173
Pb       3.85058     11.56362     17.32725         0.115681      0.015412     -0.845796
Pb      15.30904     11.51934      4.25999         0.262216      0.241470     -0.001163
Pb       0.00993     11.56450     17.26871         0.076748     -0.173928      0.028072
Pb       3.78683     11.63333      8.55992         0.098901     -0.078022     -0.519837
Pb      15.28750     11.47656      8.65558         0.199848      0.492009     -0.524858
Pb       3.85434     11.51002     13.00574         0.047040      0.038421     -0.214537
Pb      15.32256     11.72276     12.90810         0.892768     -0.040985     -0.065704
Pb       7.62894      3.91061      4.32156         0.642540     -0.391162     -0.469217
Pb       7.72702      3.96285      0.01563         0.156469     -0.557241     -0.448909
Pb       7.72834     15.39103      4.28407         0.065293      0.711628     -0.475718
Pb       7.64608      0.01310      0.07501         0.319712     -0.336619     -0.232927
Pb       7.74766      3.83324      8.66437        -0.002362      0.384438     -0.412351
Pb       7.64186      0.12488      8.63494         0.352724     -0.534913     -0.902016
Pb       7.69625      3.68751     12.94388         0.378359      0.879353     -0.684215
Pb       7.83450     15.37104     13.05779        -0.415454     -0.036874     -0.579733
Pb       7.63206      7.76426      4.31521         0.325391     -0.226068     -0.625108
Pb       7.71974      7.59717     17.34776         0.164948      0.573763     -0.117997
Pb       7.83614      7.66522      8.70478        -0.397836     -0.066432     -0.723820
Pb       7.60282      7.65969     12.95473        -0.267007      0.212024     -0.365278
Pb       7.66730     11.58860      4.19730         0.163827     -0.181189     -0.104003
Pb       7.66291     11.41164     17.34043         0.169345      0.534266     -0.640332
Pb       7.52290     11.66145      8.63296         0.358312     -0.083884     -0.598147
Pb       7.75957     11.55331     13.00134         0.112931     -0.494750     -0.357053
Pb      11.55812      3.83403      4.34045        -0.163577      0.079766     -0.270617
Pb      11.63356      3.96969      0.03368        -0.616958     -0.726721     -0.892494
Pb      11.64957     15.37955      4.19764        -0.445647      0.358602      0.414569
Pb      11.60207      0.13087      0.09844        -0.415939      0.069552     -1.112223
Pb      11.73803      3.79643      8.73027        -0.769736      0.598587     -0.492392
Pb      11.53510     15.41956      8.61417        -0.507157      0.029271     -0.467564
Pb      11.73849      3.75521     13.10856        -0.300715     -0.070129     -0.700300
Pb      11.69603     15.32892     13.08298         0.094480      0.589925     -0.213274
Pb      11.63191      7.73885      4.25165        -0.577000     -0.179158     -0.009695
Pb      11.67741      7.72802     17.21713        -0.893885      0.149050      0.283963
Pb      11.68211      7.65370      8.73172        -0.173377     -0.147580     -0.609690
Pb      11.51874      7.80595     13.08427        -0.020454      0.046682     -0.939573
Pb      11.52493     11.47133      4.22415         0.020552      0.377551      0.091383
Pb      11.55844     11.53176     17.29887        -0.419881      0.294559     -0.442269
Pb      11.45018     11.43442      8.59071         0.051604      0.489879      0.003862
Pb      11.64298     11.64943     12.94942        -0.891469     -0.807821     -0.253516
Ti       1.87610      1.99887      2.31455         0.052077     -0.166045      0.532012
Ti       1.98428      1.93869     15.32544         0.177783     -0.096633      1.965250
Ti       1.92765     13.62835      2.21440        -0.845555     -0.996813      1.235367
Ti       1.84988     13.51591     15.28931         0.892129     -0.305173      0.781337
Ti      13.50397      1.94150      2.35028        -0.308658      0.831320      0.798900
Ti      13.57998      1.92717     15.34131        -1.879113      0.372181     -0.833207
Ti      13.54221     13.52739      2.24317         0.660402     -0.544554      1.195991
Ti      13.50320     13.55102     15.34287        -1.023229      0.445367      0.907590
Ti       1.97761      1.92643      6.72752        -0.538371     -0.828306      1.319144
Ti       1.89365     13.50096      6.54587         0.128634      0.341032      0.644799
Ti      13.50753      1.99768      6.61228         0.165406      0.038967      0.081726
Ti      13.45731     13.56670      6.64415        -0.226623     -0.789113     -0.791057
Ti       1.92416      1.90681     10.87708         0.369337      0.110788      0.518732
Ti       1.94808     13.61040     10.87054         0.224119     -0.886425      0.493141
Ti      13.47206      1.92381     10.84476        -0.064446      0.185727      1.774907
Ti      13.48536     13.48654     10.87397         0.228017      0.934649      0.757755
Ti       1.86131      5.82291      2.28565        -0.038421     -0.025238     -1.109899
Ti       1.95441      5.74075     15.26375        -0.619281      0.132791     -0.732635
Ti      13.42546      5.79035      2.17568         0.593152     -0.536291      2.724602
Ti      13.49451      5.86216     15.21898         0.449384     -1.345785      0.701458
Ti       2.00700      5.78471      6.63893        -0.522600      1.151495      3.377083
Ti      13.62673      5.84863      6.54944        -1.369472     -0.061142      2.473091
Ti       1.87619      5.76713     10.89331         0.529927      0.292637      4.387064
Ti      13.47653      5.86238     10.97306         0.473301     -0.940107      1.294931
Ti       1.92527      9.72185      2.21695        -1.155235     -0.244826      0.789770
Ti       1.93854      9.56462     15.22023        -0.063095      0.951326      0.613299
Ti      13.51297      9.66566      2.18962         0.339842     -0.332564      0.681487
Ti      13.50959      9.73439     15.26174        -0.090078     -0.653677      0.829541
Ti       1.87883      9.65144      6.56685         0.654144     -0.142646      0.560787
Ti      13.46925      9.65737      6.68478         0.366752     -0.475350     -0.314664
Ti       1.97594      9.72858     10.98003        -0.110313     -0.687260      0.509319
Ti      13.58811      9.64612     10.94203        -1.871314     -0.322730      0.657314
Ti       5.70701      1.96020      2.27611         1.022654     -0.269468      1.390627
Ti       5.89330      1.86647     15.26318        -0.652401      1.358172      3.148160
Ti       5.81018     13.55596      2.29489         0.274727      0.543419      0.972125
Ti       5.81738     13.51046     15.30142        -0.127352     -0.800125      2.559879
Ti       5.77968      1.87967      6.57480        -0.035201      0.210070      1.115040
Ti       5.77486     13.54247      6.51950        -0.282133      0.229170     -0.011295
Ti       5.80674      1.81221     10.84923        -0.423574      0.647004      2.106417
Ti       5.79020     13.49047     10.94498        -0.203122      0.290739     -0.901024
Ti       5.69775      5.79459      2.31771         1.108490      0.317382      1.120296
Ti       5.76377      5.77894     15.25546        -0.390234     -0.450715     -0.370215
Ti       5.81419      5.76835      6.66029         0.442690      0.845244      1.855151
Ti       5.79552      5.70575     10.86133        -0.381508      1.006007      0.925842
Ti       5.68404      9.69398      2.24211         0.971553     -0.476418     -0.233177
Ti       5.67988      9.57829     15.33230         0.747063      1.020442      0.157551
Ti       5.79529      9.68967      6.54489        -0.575815     -0.456723      0.203457
Ti       5.75121      9.71151     10.84582         0.551843     -1.220131      1.743479
Ti       9.63979      1.96913      2.19032        -1.177595      0.174685      2.992482
Ti       9.66388      1.94442     15.31179         1.160777      0.142932      1.922684
Ti       9.69645     13.56128      2.31360        -1.271805      0.117808     -0.180015
Ti       9.63347     13.49932     15.34268         0.278154      0.226571      1.617489
Ti       9.67114      1.99999      6.62628        -1.058257     -0.407256      1.420517
Ti       9.59273     13.53394      6.57503         0.326235      0.132113      0.251230
Ti       9.61904      1.84236     10.92426         1.051624      1.459165      1.127165
Ti       9.65731     13.55748     11.02772         0.019541     -1.373338     -0.429162
Ti       9.63698      5.78354      2.38163        -0.846923      0.330263      0.598535
Ti       9.62881      5.77971     15.31433         0.394111     -0.758873      0.130374
Ti       9.70100      5.77292      6.69955        -0.249069     -0.051308     -0.308105
Ti       9.64218      5.79018     10.99983        -0.028908     -1.019110      0.688252
Ti       9.66151      9.65370      2.23222        -0.553316     -0.534316      1.401492
Ti       9.62697      9.61485     15.28142        -0.583876      0.538908      0.824020
Ti       9.61669      9.62616      6.54951        -0.463719      0.107252      1.322343
Ti       9.59583      9.56902     10.92114         0.608025      0.944786      2.483024
O       1.72898      1.99847      0.59222         0.308889     -0.039980     -0.924989
O       1.91043      1.81609     13.63287         0.011491      0.215097     -2.006190
O       1.66665     13.54244      0.48434         0.552632      0.394521     -0.289940
O       1.83512     13.67035     13.55814         0.210530     -0.260762     -0.678424
O      13.39783      2.06776      0.60519         0.584127     -0.371878     -0.662244
O      13.45022      1.77685     13.54386         0.376872      0.155553      0.108732
O      13.68563     13.44376      0.51727        -0.452564      0.441843     -0.418381
O      13.49940     13.54620     13.58656         0.044126      0.007047     -0.769664
O       1.84910      1.81426      5.01553         0.246645      0.309412     -1.660449
O       1.84712     13.66154      4.76551         0.699515     -0.282322      0.409450
O      13.56875      2.06150      4.87090        -0.314190     -0.454933     -0.013415
O      13.51162     13.48521      4.85929        -0.135400      0.100891      0.932311
O       2.07927      1.92131      9.14525        -0.545971      0.296682     -0.549694
O       2.05675     13.53139      9.11165        -0.333086     -0.005213      0.519289
O      13.54918      2.06745      9.08704        -0.106649     -0.069599     -0.640241
O      13.46238     13.48581      9.14075         0.079922     -0.043776     -0.666432
O       1.91968      5.91666      0.47123        -0.146942     -0.437753      0.788030
O       1.97925      5.73513     13.48487        -0.147334     -0.147594      0.665642
O      13.52363      5.70881      0.45266         0.112830      0.376500     -0.767146
O      13.37968      5.82601     13.49853         0.301006      0.261027     -0.739401
O       2.01618      5.88791      4.96771        -0.145493     -0.169416     -3.326357
O      13.58841      5.87614      4.85501        -0.133371      0.175360     -1.691125
O       1.84022      5.91106      9.24890         0.143599     -0.264028     -4.132645
O      13.42748      5.68685      9.24664         0.352905      0.283902     -1.066236
O       1.93737      9.56299      0.48055        -0.070407     -0.013593     -0.525194
O       1.97128      9.65749     13.44503        -0.003208     -0.109835      0.067993
O      13.57343      9.68067      0.44232        -0.183567     -0.159285     -0.465100
O      13.34485      9.53585     13.53171         0.545002      0.630887     -0.531515
O       1.91374      9.58991      4.79064         0.038320      0.065623     -0.317621
O      13.62981      9.58832      4.91157        -0.471434      0.092629     -0.098465
O       1.95930      9.55606      9.25145        -0.374113      0.646193     -0.624369
O      13.41915      9.68547      9.20880         0.875017      0.242357     -0.968516
O       5.78738      1.94749      0.54002        -0.307089      0.137951     -0.715345
O       5.79690      1.96753     13.58950         0.063496     -0.375129     -2.605792
O       5.87725     13.62966      0.55646        -0.270406     -0.098580     -0.653486
O       5.78094     13.55572     13.61030         0.060063      0.094089     -2.369853
O       5.73173      1.87759      4.86134        -0.053927      0.305174     -1.204472
O       5.79849     13.57239      4.72167        -0.216909     -0.236277      0.383376
O       5.80119      2.03178      9.16620        -0.024338     -0.564292     -1.779331
O       5.78695     13.48653      9.14367         0.044921      0.139379      0.826790
O       5.76835      5.71732      0.58986         0.021678     -0.045964     -1.214776
O       5.65314      5.86206     13.49251         0.405645     -0.404659      0.881713
O       5.73190      5.83496      4.93254        -0.188370     -0.196971     -1.736471
O       5.81214      5.86530      9.07823        -0.058442     -0.322101      0.447081
O       5.66696      9.78018      0.43351         0.193157     -0.222199      0.889427
O       5.50807      9.65038     13.59022         0.431571      0.103492     -0.586287
O       5.68000      9.73443      4.75309         0.156854     -0.032625      0.050501
O       5.78469      9.54335      9.11284         0.151243      0.745739     -0.453635
O       9.70499      2.00632      0.49177         0.069578     -0.273833     -1.463605
O       9.79599      2.02925     13.59905        -0.371361     -0.128138     -1.623684
O       9.53194     13.63794      0.58742         0.498811     -0.139172     -0.618764
O       9.71507     13.43330     13.60686        -0.347424      0.212012     -1.420509
O       9.55725      2.03935      4.93134         0.235172     -0.071851     -1.167768
O       9.58681     13.69497      4.81536         0.159597     -0.501905      0.112204
O       9.71325      1.81018      9.20775        -0.503544     -0.107461     -0.684903
O       9.74474     13.54421      9.27365        -0.328269      0.028265      0.409713
O       9.57548      5.80368      0.63181        -0.177166      0.019252     -0.780395
O       9.68006      5.70610     13.55816        -0.139601      0.316579      0.496681
O       9.70377      5.76640      4.93677        -0.130554     -0.110611     -0.447324
O       9.51509      5.90934      9.25000         0.180384     -0.208660     -0.303776
O       9.69605      9.67258      0.50843        -0.177920     -0.009580     -0.762244
O       9.69063      9.64582     13.52678         0.121726     -0.219544      0.031134
O       9.65443      9.66080      4.82481         0.154869     -0.097546     -0.637491
O       9.49467      9.69252      9.22192         0.033717     -0.120006     -1.342455
O       3.76309      1.96647      2.72205         0.053836     -0.329321     -0.159438
O       3.86008      2.01922     15.76118        -0.326589     -0.312869     -0.026610
O       3.83320     13.60301      2.51608        -0.541842      0.129628      0.163052
O       3.83558     13.36668     15.65533        -0.584519      1.067512      0.356973
O      15.35378      1.89417      2.78162         1.001107      0.951194     -0.178426
O      15.40293      1.81379     15.70097         0.972298      0.150187      0.328496
O      15.45260     13.49876      2.79981        -0.214513      0.012778     -0.691711
O      15.37052     13.63194     15.60615         0.373142      0.232511      0.366011
O       3.89433      1.73494      7.01413        -0.698205      0.984856      0.083746
O       3.86912     13.66250      6.95947        -0.569330     -0.330927     -0.224735
O       0.03113      1.95345      7.11206        -0.909297      0.299750      0.059116
O       0.04855     13.46451      6.96689        -1.256300     -0.059918      0.475309
O       3.97576      1.99211     11.20801        -1.061192     -0.169654      0.659425
O       3.88428     13.48151     11.32398         0.002217      0.441449      0.447339
O       0.01039      1.82910     11.26583         0.283808     -0.156055      0.106459
O       0.01343     13.43865     11.25381        -0.012229      0.710700      0.077064
O       3.83375      5.82134      2.69820        -0.574555     -0.269366      0.257938
O       3.83533      5.66645     15.75894         0.761290      0.460488      0.034861
O      15.42519      5.74553      2.64046        -0.387205      0.174416      0.005310
O       0.01464      5.93036     15.57904        -0.571610      0.192426      0.254595
O       3.86146      5.87746      7.08069        -0.360737     -0.394050     -0.043984
O      15.44312      5.92401      7.00238         0.613272     -0.451058      0.078482
O       3.88937      5.67368     11.32635        -0.230440     -0.007368     -0.443021
O      15.44473      5.77981     11.27211        -0.179414     -0.066448      0.546181
O       3.80056      9.71416      2.62517         0.214878     -0.343385      0.238178
O       3.82250      9.71593     15.68270        -0.835751      0.241899      0.368798
O      15.43534      9.70433      2.64433         0.093257     -0.713299     -0.010487
O       0.00254      9.60783     15.58199        -0.532535     -0.560813     -0.036960
O       3.86606      9.64488      6.97565        -0.325487      0.160729      0.176094
O      15.44515      9.88018      6.99156         0.114952     -0.802791      0.200606
O       3.87836      9.54986     11.27426        -0.438506      0.892479      0.144281
O      15.43655      9.68563     11.43061         0.596742      0.315126     -0.169719
O       7.70823      2.02065      2.65349        -0.367312      0.087461     -0.130393
O       7.76856      1.96304     15.72087        -0.276859     -0.493807     -0.295344
O       7.77015     13.49265      2.71833        -0.985606      0.117416      0.058467
O       7.69249     13.56854     15.76613         0.327089      0.365115     -0.367281
O       7.64113      2.02468      7.09591         0.596741     -0.556288     -0.010528
O       7.67082     13.50034      7.05588         0.485176     -0.276182     -0.277342
O       7.68235      1.77841     11.26999         1.399205      0.067730      0.578466
O       7.67351     13.60145     11.45489         1.481453     -0.296165     -0.065640
O       7.69442      5.80609      2.81972        -0.703537      0.047256     -0.102675
O       7.69533      5.88047     15.77814         0.036593     -0.427840     -0.342259
O       7.70068      5.70174      7.08289        -0.310120      0.247818     -0.113936
O       7.66110      5.80907     11.50887         0.360195      0.121299     -0.482900
O       7.72961      9.72955      2.63436        -0.774191     -0.184285     -0.114514
O       7.74036      9.68728     15.57528        -0.478719     -0.213054      0.493232
O       7.68773      9.85576      6.93785         0.292525     -0.252641     -0.145198
O       7.60284      9.61362     11.48939         0.631864     -0.008850     -0.476336
O      11.53806      1.82432      2.71946         0.400546      0.293522      0.015299
O      11.68033      2.14573     15.77309        -0.764565     -0.271180      0.253967
O      11.56976     13.52276      2.69960         1.134807      0.138556     -0.252721
O      11.52501     13.42283     15.74015         0.901894     -0.028452      0.188697
O      11.49364      1.95035      7.02691         1.818223     -0.213547     -0.055682
O      11.56705     13.52930      6.97370         0.307363      0.725082      0.057726
O      11.59888      2.06707     11.20264         0.023410     -0.213264      0.201565
O      11.64792     13.43199     11.45719        -0.593133      0.143790     -0.334935
O      11.49618      5.82752      2.75744         1.688885     -0.078074     -0.331070
O      11.54923      5.75891     15.72136         0.507330      0.184868     -0.005612
O      11.53086      5.87179      7.10077         1.052760     -0.149228      0.043710
O      11.60815      5.77009     11.29025        -0.540581     -0.012615      0.241208
O      11.58718      9.65694      2.66984         0.234761      0.085317     -0.041748
O      11.54753      9.62499     15.72807         0.806984      0.808426     -0.025756
O      11.55241      9.59471      7.10053        -0.290156     -0.216122     -0.375087
O      11.54956      9.57029     11.23819         0.070650      0.437221      0.433991
O       1.89848      3.89793      2.76189         0.041718     -0.047619      0.097035
O       1.82920      3.87826     15.73958        -0.185462     -0.621150     -0.034739
O       1.79770      0.08791      2.68901         0.484918     -0.922698     -0.337624
O       1.90444     15.45780     15.74234         0.311126     -0.042892      0.395176
O      13.38786      3.88834      2.72185         0.186852      0.289105     -0.389924
O      13.63445      3.89489     15.51399         0.126905      0.368095      0.506627
O      13.59202     15.42169      2.73261        -0.730278     -0.119190     -0.627473
O      13.22592      0.04670     15.75235         1.064322     -1.037328      0.088679
O       1.86674      3.91317      6.97594         0.574832     -0.414692      0.178360
O       1.81377      0.00507      7.18594         0.418202     -0.500498     -0.520604
O      13.45118      3.91632      6.90164         0.327502     -0.135602      0.644436
O      13.55643      0.08735      7.04146        -0.299274     -1.196153     -0.221464
O       1.90163      3.79187     11.31871        -0.032242     -0.171566      0.128402
O       2.11940      0.05577     11.34126        -0.599915     -1.058464     -0.031057
O      13.68800      3.81286     11.38568        -0.584796     -0.034694      0.074172
O      13.41443      0.00762     11.21563         0.287996     -0.665554      0.154131
O       1.88225      7.64335      2.64952         0.178790      1.201845      0.343978
O       2.06631      7.70342     15.66610        -0.425269      0.211280     -0.187179
O      13.44073      7.74612      2.61552         0.493421     -0.669301     -0.130599
O      13.38034      7.77195     15.62639         0.703955     -0.239432      0.221358
O       1.93921      7.80603      7.00960        -0.531032     -0.503395      0.177399
O      13.48437      7.74434      7.09251         0.346785      0.117659      0.007641
O       1.82601      7.66933     11.28329         0.293058      0.903023      0.582860
O      13.53883      7.77339     11.25180         0.231920     -0.448899      0.329840
O       1.90630     11.58362      2.50800         0.216796      0.729842      0.358824
O       1.74194     11.57920     15.65138         0.531848      0.120105     -0.130020
O      13.55948     11.51396      2.63886        -0.554435      1.174142      0.196126
O      13.59454     11.62350     15.75103        -0.406712     -0.442071     -0.610694
O       2.07169     11.58386      6.84024        -0.082773      0.687854      0.257377
O      13.40412     11.56538      7.04144         0.297027      0.654917      0.228477
O       2.05907     11.64950     11.31281        -0.600306     -0.445371      0.044525
O      13.56471     11.58946     11.33402        -0.248223     -0.012293      0.200685
O       5.68524      3.86334      2.76612        -0.004766      0.455619      0.157291
O       5.84904      3.83523     15.62844        -0.045362      0.845625      0.380515
O       5.84640      0.07981      2.58650        -0.292020     -0.918074      0.276739
O       5.72797      0.04428     15.69854        -0.152661     -0.973967      0.247876
O       5.70194      3.88215      7.00965        -0.483214     -0.502936     -0.109500
O       5.78491     15.42802      6.91859         0.738206      0.210369      0.437572
O       5.90298      3.85739     11.25391        -0.035611     -0.798789      0.257426
O       5.84504     15.38282     11.42436        -0.612155      0.478680     -0.150498
O       5.74570      7.72899      2.52940         0.089893      0.761901      0.448297
O       5.80432      7.74144     15.60771        -0.377731     -1.049686      0.524575
O       5.78465      7.80826      6.92884         0.410615     -0.384402      0.055932
O       5.69642      7.73132     11.36305         0.485600     -0.185243     -0.256324
O       5.73665     11.62166      2.63369        -0.103208      0.005637      0.034336
O       5.76817     11.61876     15.67463         0.298031     -0.278066      0.400929
O       5.65623     11.64991      7.00609         0.274460     -0.097914     -0.015945
O       5.84414     11.60964     11.27512        -0.288629     -0.524108      0.236088
O       9.59010      3.88713      2.71330         0.581380     -0.437627      0.065222
O       9.65936      3.84971     15.81833        -0.513321      1.278060     -0.169728
O       9.53810      0.06136      2.63955         0.506976     -0.457796      0.112241
O       9.80963      0.04167     15.59942        -0.297767     -0.270646      0.385283
O       9.64257      3.87369      7.14677         0.048905     -0.358071      0.059402
O       9.58149     15.44085      7.05143        -0.006605      0.109959      0.149215
O       9.58539      3.85963     11.32220        -0.360236     -0.719238     -0.041348
O       9.84650     15.41886     11.43545        -0.753249      0.211276      0.141391
O       9.62828      7.73049      2.73360        -0.098615      0.549134      0.050194
O       9.71515      7.73139     15.85717        -0.426485     -0.376929     -0.731102
O       9.50078      7.68100      6.99248         0.027898      1.337063      0.142489
O       9.65580      7.67761     11.37228        -0.435739      0.517869      0.219507
O       9.67528     11.59714      2.67867         0.215199     -0.054877      0.086206
O       9.60894     11.61300     15.81729         0.062893     -0.653721     -0.207664
O       9.80422     11.58373      6.91153        -0.664799      0.252452     -0.001106
O       9.59902     11.53037     11.48929         0.077505      0.682501     -0.392791
