  # total energy = -7842.48290094 
CRSYTAL
PRIMVEC
    15.6080000000000005    0.0000000000000000    0.0000000000000000
     0.0000000000000000   15.6080000000000005    0.0000000000000000
     0.0000000000000000    0.0000000000000000   16.6239999999999988
PRESSURE
2.03279 3.82655 -1.25223 0.371269 0.344049 -0.251129
PRIMCOORD
320 1
Pb       3.46041      3.71007      4.11168         0.027474      0.651339      1.120838
Pb       3.70993      3.91089      0.15432         0.897081      0.202629     -0.510695
Pb       3.56516     15.53067      4.01946         0.804330     -0.278210      0.752070
Pb       3.99607     15.59791     16.35203        -0.966058     -1.212152      1.266700
Pb      15.32115      3.92972      4.09457         1.150094     -0.508694      0.601874
Pb       0.12810      3.80362     16.32511        -0.214855      0.755735      0.378554
Pb       0.23386     15.40453      4.13064        -0.888597      1.430980      0.610959
Pb      15.48325     15.46398      0.09550         0.159342     -0.527294      0.163724
Pb       3.90736      4.04771      8.33036         0.673061     -0.394151     -0.525335
Pb       3.99098     15.54158      7.94479        -0.439146      0.753210     -0.046970
Pb       0.16697      3.83603      8.59981        -0.405770      0.460511     -1.420039
Pb       0.37072      0.19497      8.78394        -0.438357     -0.430653     -1.359880
Pb       4.09075      3.86665     12.63213         0.415865      0.317000     -0.292628
Pb       3.84736     15.39595     12.57078         0.382363      0.938134      0.159506
Pb      15.47248      3.98876     12.32013         0.045989     -0.181911      1.505408
Pb      15.58494      0.13616     12.84328        -0.147865      0.052100      0.100723
Pb       3.88796      7.39789      4.29786        -1.098280      0.652442     -0.874866
Pb       3.87063      7.74470      0.02360        -0.219020     -0.790951     -0.517989
Pb      15.42357      7.78114      4.51654        -0.142985      0.086378     -1.053291
Pb      15.34200      7.83528      0.16849         0.489395     -0.457812      0.391887
Pb       3.71148      7.67427      7.97942         1.136940      1.351193      1.976882
Pb      15.52364      7.70765      8.39488         0.379738      0.319442     -0.432217
Pb       4.12964      7.95392     12.12894        -0.628256     -1.241253      1.143903
Pb      15.43834      7.91557     12.59238         0.554855     -1.007493      0.364500
Pb       4.21475     11.43767      3.80571        -1.536765      2.581673      1.441644
Pb       4.21628     11.41599     16.31687        -1.356298      2.005699      1.437576
Pb      15.36903     11.92678      4.13172         0.805977     -2.062871      0.716253
Pb      15.60292     11.57303      0.22586         0.059745      0.920820     -0.625443
Pb       4.17288     11.60214      8.25714        -0.909281     -0.375313      0.370022
Pb       0.07695     11.64365      8.82118         0.547218     -0.466370     -1.431551
Pb       3.73016     11.51503     12.26303         0.378326     -0.095104      0.144114
Pb       0.04958     11.65661     12.56590        -0.311386     -0.293395      0.119746
Pb       7.63705      3.82469      4.41993        -0.322000      0.125161     -0.872407
Pb       7.84159      3.96481      0.26173        -0.999019      1.089505     -0.197579
Pb       7.34931     15.59042      4.22249         0.501308      1.708258      0.123826
Pb       7.89290      0.11645      0.24919        -0.553012     -1.582384     -0.259489
Pb       8.12011      3.82308      8.68526        -0.374397      0.544833     -0.670799
Pb       7.76944      0.08054      8.32404         0.296453      0.160600     -0.607390
Pb       7.70695      3.62156     12.69713         0.701973      0.487929     -0.544230
Pb       7.76789      0.02637     12.30001         0.593754     -0.420924      0.810182
Pb       8.04713      7.75691      4.17653        -1.092557      0.845453     -0.794939
Pb       7.93488      7.64104     16.48506        -0.768287     -0.215318      0.881258
Pb       7.77624      7.59644      8.13232        -0.124234      0.685177      0.403491
Pb       7.84876      7.58237     12.25471         0.245805      1.406350      0.960018
Pb       7.92163     11.65454      4.32084        -0.738843     -1.711337     -0.316374
Pb       7.75214     11.56476      0.03461         0.457777      0.265145      0.221046
Pb       8.01302     11.79822      8.57016        -0.021150     -0.764274     -0.413412
Pb       7.31775     11.56556     12.35846         1.451963     -0.095659      0.074755
Pb      11.64758      3.94591      4.25828         0.316179     -0.598567     -0.277779
Pb      11.53491      3.79458      0.17555         0.206856      0.978427     -0.266853
Pb      11.40288      0.22312      3.87615         2.954430      0.343101      1.762782
Pb      11.30655     15.53554     16.42481         2.080471     -0.818074      1.393413
Pb      11.59538      3.54528      8.23853        -0.537410      0.336869     -0.196429
Pb      11.63187     15.38947      8.54815        -0.812955      0.370805     -0.205780
Pb      11.72282      4.20998     12.45620        -0.590552     -1.064482      0.888645
Pb      11.85225      0.15697     12.77560        -0.025264      0.172086     -0.434354
Pb      11.89478      8.08502      3.90102         0.261686     -0.529722      0.265647
Pb      11.21899      7.91973     16.56872         1.007279     -0.699240      1.095618
Pb      11.34254      7.81688      8.00724         0.469220     -0.571833      0.868379
Pb      11.73536      7.96897     12.34891        -0.898536     -0.543118      0.382419
Pb      11.61704     12.16923      4.29417         0.764352     -2.452881      0.860087
Pb      11.48829     11.88705      0.24572         0.828977      0.184533      0.622628
Pb      12.06171     11.81054      8.51742        -1.260467     -0.171371     -0.717436
Pb      11.97439     12.00182     12.74349        -0.008170     -0.345282     -1.329529
Ti       1.86891      1.78559      2.08579        -0.429513      0.052345      0.037040
Ti       2.01794      1.86653     14.57930        -1.075190     -0.662404      0.567249
Ti       1.93862     13.32145      2.26359         1.658581      0.813048     -0.869071
Ti       2.05859     13.50921     14.52444        -2.011702      0.675624      3.651148
Ti      13.73971      1.90987      2.08811        -0.425769     -1.136156      0.348421
Ti      13.57566      2.00715     14.77412         0.884772     -0.618260     -1.380238
Ti      13.58462     13.70029      2.49086         0.563837      1.072415     -4.387150
Ti      13.80024     13.50079     14.79532         0.187584     -0.471697      2.688163
Ti       1.88441      1.96190      6.55048         0.354029     -0.070982     -3.011058
Ti       1.96536     13.25426      6.28781        -0.709111      5.304159     -0.143173
Ti      13.73104      1.86334      6.33255        -0.293279      0.113598     -2.312285
Ti      13.67542     13.72110      6.49558         0.707198     -1.709835     -1.278493
Ti       2.09919      2.00158     10.54561         0.262010     -3.585547      0.152068
Ti       2.16446     13.74189     10.27107        -1.085660     -1.110239      0.051467
Ti      13.66182      1.87792     10.44818        -0.657035      3.135083      0.346186
Ti      13.85609     13.75109     10.37121        -0.262828      0.162476      3.070284
Ti       1.73661      5.77880      1.99161        -0.111416      0.489607      0.466070
Ti       2.06240      5.85515     14.45989        -1.921236      0.714881      1.685822
Ti      13.62812      5.73812      2.15086        -0.766816      3.986440     -0.921631
Ti      13.46925      5.83514     14.82197         0.204676     -0.264618     -1.266342
Ti       1.80414      5.88391      6.52948         0.138493     -1.949643     -2.901710
Ti      13.50207      5.69212      6.27567         0.234392      2.103056      2.039877
Ti       2.10423      5.59371     10.55557         0.235349      2.497768     -0.062071
Ti      13.63930      5.73058     10.35825        -0.238553      0.725416     -0.290258
Ti       2.00513      9.51393      2.05152        -2.147125      1.903190      2.318716
Ti       2.02118      9.70030     14.75417        -0.875717     -0.748730     -1.171739
Ti      13.64726      9.84479      1.94655        -0.086886     -2.293123      1.401988
Ti      13.71078      9.50433     14.66279        -0.128541      3.509740      0.838020
Ti       1.76594      9.79759      6.17827        -0.203236     -2.002895      0.548517
Ti      13.61133      9.60765      6.45530        -0.161203      1.751557     -2.226972
Ti       1.85925      9.67944     10.61595         0.241568     -1.083859     -2.885655
Ti      13.58083      9.53391     10.34518         0.046818      2.016330      0.202892
Ti       5.66034      1.98078      2.09278         1.458691      0.866143      0.570728
Ti       5.98696      1.84166     14.75160        -0.739876      1.168522      0.007225
Ti       5.84100     13.65596      2.00901        -1.894295     -0.821429     -0.834252
Ti       5.94845     13.58806     14.57918         0.482143      0.083723      0.718540
Ti       5.85526      2.15691      6.37216        -1.023026     -0.917014     -0.864346
Ti       5.82392     13.63599      6.22238        -0.085142     -0.193340      0.379286
Ti       5.85095      1.83277     10.31100        -0.486081      1.906024     -0.325818
Ti       5.78140     13.76950     10.26117         1.068966     -1.511216     -0.503846
Ti       5.71492      5.88722      2.17599         1.316144     -0.750265     -0.927327
Ti       5.78692      5.85481     14.41314         1.051939     -1.303755     -0.446184
Ti       5.80598      5.89659      6.19146         1.147572     -0.768522      0.538018
Ti       6.07361      5.85669     10.40091        -0.370316     -1.062576     -0.623296
Ti       5.81354      9.62997      1.86947         3.882908     -1.532377      2.732901
Ti       6.03600      9.50666     14.67117         0.803648      0.621944     -2.483178
Ti       5.69030      9.79162      6.26038         2.850551     -1.006213     -0.001334
Ti       5.84937      9.72229     10.29378         1.053647     -0.540577      0.953126
Ti       9.61193      2.00119      2.10319        -0.403214      1.800797      2.283513
Ti       9.71161      1.95569     14.72264         1.224219      1.856045     -3.281755
Ti       9.55897     13.74583      2.54344        -0.656019     -1.248415     -4.901914
Ti       9.74652     13.48774     14.60256        -1.723500      2.345287     -2.477929
Ti       9.64154      1.76917      6.15602         1.023198      1.381973      2.472548
Ti       9.73309     13.68553      6.42438         0.419333     -0.851980      0.960037
Ti       9.80220      1.83886     10.66705         0.282621      0.392450     -0.284050
Ti       9.69945     13.62091     10.66281         1.178023      0.135232     -0.217390
Ti       9.64131      5.83727      2.29694         0.418412      1.468824     -1.567361
Ti       9.64909      5.97412     14.44184         0.340177     -2.152260     -0.873059
Ti       9.68516      5.84622      6.11124         0.503956     -0.925306      0.159162
Ti       9.92315      5.81989     10.46257        -2.912614      1.035075     -0.452957
Ti       9.83064      9.76152      2.27490        -1.409677     -0.228098     -1.095730
Ti       9.91689      9.87086     14.48623        -1.141291     -1.281873     -1.501454
Ti       9.81225      9.79899      6.23826        -1.785196      0.930001     -0.593113
Ti       9.82204      9.78582     10.50221        -1.218737     -0.757643     -0.557258
O       1.78677      1.94949      0.28521         1.334136     -0.493164      0.270985
O       1.90691      1.59397     12.75794         0.813937      0.494183     -0.286376
O       2.32793     13.43215      0.56851        -1.002393     -0.295856     -1.206262
O       1.80454     13.67238     12.82514         0.180357     -0.326010     -2.344930
O      13.91061      2.00339      0.29192        -0.909588      0.582689      0.019772
O      13.84846      1.77022     12.81387        -0.483938      0.601548      0.734720
O      13.55119     13.71432      0.52038        -0.177167     -0.445477     -0.451547
O      13.75922     13.92537     13.04923        -0.179279     -0.848715     -0.958063
O       1.95857      1.75531      4.51308        -0.445776      1.051045      0.711046
O       1.76777     13.77709      4.45196         0.892224     -0.700317      0.636967
O      13.66838      2.09526      4.47587         0.068076     -0.548595      0.403767
O      13.81508     13.61747      4.49715        -0.705508     -0.503198      0.031382
O       1.99125      2.02288      8.71249        -0.080180      0.218262     -0.861487
O       2.23858     13.47599      8.50115        -0.108482      0.271951     -0.219296
O      13.30032      1.96974      8.60434         1.080651     -0.234256      0.323870
O      13.74355     13.60671      8.65851        -0.755378      0.817057     -2.573666
O       1.67400      5.88920      0.15824         1.532392     -0.249982      1.541481
O       1.91744      5.71577     12.75417         0.587791     -0.328940     -2.261538
O      13.98300      5.94025      0.38048        -1.843691     -0.846413     -1.433866
O      13.65360      6.10569     12.98585        -0.134049     -1.031375     -0.844906
O       1.62781      5.80996      4.60798         1.157942      0.039698      0.992736
O      13.41311      6.01927      4.55136         0.840844     -0.200439     -2.555397
O       2.05224      5.49532      8.61772        -0.458220      1.066350      2.727429
O      13.67725      5.60985      8.63979         0.005743      0.312022     -0.633069
O       2.01591      9.66550      0.33108         0.756525     -0.339721     -2.333293
O       1.96559      9.87013     12.71885        -0.331427      0.109612      0.371412
O      13.47077      9.59408      0.18785         0.596532      0.364255     -0.870277
O      13.66787      9.77196     12.82376         0.630193     -0.329315     -1.197268
O       1.90175      9.58901      4.43278        -0.168537     -0.461690      0.444395
O      13.80855      9.63890      4.47273        -0.191984     -0.055541      0.877029
O       1.71254      9.98244      8.71653         0.668290     -0.439606     -0.301344
O      13.35749      9.88438      8.57385         0.775934     -0.855365      0.332883
O       5.61104      2.16607      0.28678         0.323829     -0.727657     -0.342571
O       6.18347      1.67891     12.99214        -0.128425      0.940294     -1.344840
O       5.64713     13.43888      0.20867        -0.006029      0.898134     -0.426835
O       5.78759     13.51008     12.74799         0.475178      0.500026      0.977492
O       6.02042      1.99555      4.41630         0.619994      0.152898      0.298278
O       6.03320     13.85083      4.39767        -0.647510     -1.373198      0.747287
O       5.80796      1.93312      8.49530         0.405777      0.057926      1.475773
O       5.48776     13.73039      8.38153         1.303331     -0.056409      1.443045
O       5.92918      5.94854      0.32483        -0.932312      0.276033     -0.655898
O       5.85672      6.03726     12.53748         0.274985     -1.126554      1.320926
O       5.41656      5.69849      4.36779         1.451896      0.347090      1.177058
O       6.06402      5.84019      8.50059        -0.416052     -0.259279      1.266973
O       6.03338      9.50999      0.06738        -0.635865      0.115158      0.753894
O       5.99905      9.64671     12.72720        -1.232404      0.090934      0.077260
O       5.77826      9.96141      4.51441         0.482835     -0.916923     -0.938367
O       5.96423      9.79537      8.60500        -0.504285     -0.124138     -2.096242
O       9.72291      2.15758      0.35361         0.699631     -0.625765     -2.862343
O       9.57143      1.94772     12.75432        -0.306286     -0.554363      0.454641
O       9.83691     13.95383      0.72666         1.138877     -0.551102     -2.106631
O       9.58610     13.67151     12.72459         0.594098     -0.961046      1.657753
O       9.45943      2.26161      4.48693         0.595277     -0.411986     -1.778685
O       9.79125     13.63512      4.32272        -0.802680      0.309165      3.609133
O       9.89460      1.63758      8.63202         0.226253      0.790925      0.980054
O       9.97492     13.74288      8.69468        -1.100022      0.270377     -1.130415
O       9.52098      6.07877      0.15460         0.980539     -1.507473      0.336204
O       9.86501      5.91254     12.53441        -0.503297     -0.118924      1.728821
O       9.75289      5.81624      4.24442        -0.316038     -0.312355      0.571709
O       9.53012      6.08506      8.65632         0.887044     -0.748739     -0.685015
O       9.62695      9.87802      0.33757         1.130187     -0.756489     -0.032554
O       9.86054      9.88981     12.61847         0.332779     -0.026904      1.821633
O       9.84017      9.90714      4.36802        -0.645360     -0.174956      1.017854
O       9.69471      9.48096      8.60712         0.729565      1.197926     -0.012271
O       3.87712      2.07600      2.61375        -0.761688     -0.600998     -1.505129
O       4.14619      1.66641     14.67209        -2.690836      0.426757      0.028213
O       3.85842     13.66853      2.61160         1.460345     -0.642896      0.063187
O       3.82454     13.86405     14.61287         1.883050     -0.728778      0.292681
O       0.08418      1.87771      2.40541        -2.216525      0.386098      0.267616
O       0.12940      2.10538     14.71493        -0.771201     -0.722741     -0.121055
O      15.59510     13.56037      2.43349        -0.498629     -0.126496     -0.083060
O      15.59123     13.44101     15.20008         0.272556      0.994509     -0.739212
O       4.04267      1.95288      6.22960        -1.332143     -0.021900      1.382255
O       3.88558     13.86915      6.32614         1.104680     -0.571347     -0.360156
O      15.54035      1.92824      6.60712        -0.562980      0.638141      0.718520
O       0.19556     13.28591      6.57002        -1.922989      0.886345      0.410325
O       3.98327      1.72392     10.66178         1.311247      0.634791      0.498504
O       3.98116     13.99615     10.73762        -0.267831     -1.682547     -0.010913
O       0.09890      2.23661     10.59977        -1.364182     -1.008233     -0.257825
O       0.17373     13.81760     10.36956        -0.577995     -0.320804      0.567925
O       3.87742      5.84407      2.25994        -2.342818     -0.665142     -0.335324
O       3.95238      5.45601     14.60198        -0.618569      1.210140      0.646479
O      15.48739      6.17283      2.36828         0.798394     -1.198064      0.739210
O       0.16932      5.65515     14.72664        -0.561473     -0.049660     -0.122095
O       3.78927      5.77746      6.72021         1.037077      0.783695     -0.793694
O       0.07154      5.85767      6.77481        -2.408919      0.183498      0.471918
O       3.94055      5.71079     10.88072        -0.658654      0.295719     -0.992385
O       0.15706      5.72998     10.81244        -1.292126     -0.136831     -0.950173
O       4.19632     10.29265      1.98888        -3.106104     -2.328416     -0.876778
O       3.89998      9.58641     15.04249         1.129985      0.081579     -0.980276
O       0.08364      9.81896      1.95977        -0.150150     -0.939626      0.821500
O       0.04923      9.57205     14.79902         1.123416      0.151983      0.134390
O       3.90332      9.70631      6.59768        -1.474663     -0.056633      0.058393
O      15.42662      9.74550      6.62975         3.085172     -0.186371     -0.114995
O       3.78571      9.63846     10.58280         2.470220      0.912775      0.231028
O      15.53753      9.84159     10.49069        -1.637245     -0.120892      1.510632
O       7.74601      2.09320      2.15994         0.005901     -0.947470     -0.092900
O       7.98869      1.79169     14.98208        -2.801846      0.225639      0.795623
O       7.73341     13.88232      2.00684         0.531358      0.162130      1.696447
O       7.86772     13.53727     15.21410        -0.342752      0.132045     -1.083324
O       7.88231      1.93421      6.71321        -0.157872      0.595717     -0.098808
O       7.82629     13.74588      6.63147         0.315457     -0.433763     -0.205344
O       7.88053      1.91275     10.69856        -1.331903      0.117344     -0.375931
O       7.66641     13.49424     10.54607        -0.148639      1.268837     -0.402770
O       7.70048      6.19737      2.10803         0.917792     -0.406382      1.676642
O       7.80008      5.99166     14.62751        -0.838639     -0.464737     -0.039767
O       7.76791      5.85353      6.26034        -2.535746      0.591789     -0.558020
O       7.92919      6.07055     10.66820        -1.548397     -1.240692     -0.639088
O       7.88490      9.45388      2.50034        -1.302395      1.120163     -0.370450
O       7.90965      9.68048     14.73502         0.441071     -0.110608      0.036631
O       7.83460      9.94002      6.33518         1.300108     -0.404589     -0.059346
O       7.82358      9.81904     10.59868        -0.054563     -0.318401      0.172190
O      11.77305      2.05789      2.29635        -0.814177      0.034819      0.120832
O      11.70805      2.08017     14.45518         0.098118     -0.841514      1.455058
O      11.71940     13.71839      2.63647        -0.741660      0.119173      0.017502
O      11.65501     13.50171     14.90782         0.412153      0.654503      0.036220
O      11.63591      2.07042      6.33080        -0.169628      0.563202      0.498705
O      11.71366     13.79418      6.49752         0.404798     -0.361530      0.305468
O      11.62307      2.18578     11.03268         1.436170     -1.598676     -0.846889
O      11.64633     13.69793     10.77632         1.330128      0.213894      0.199208
O      11.52129      6.13571      2.23726         2.458510     -2.685345     -0.374620
O      11.50353      5.85433     14.77371         3.267277     -0.260763      1.037814
O      11.64966      5.67130      6.53638        -0.649114      0.075206      0.050206
O      11.65419      5.75131     10.72405         4.239555      0.639216     -0.536786
O      11.70962      9.94143      2.42216         0.081763     -0.224097     -0.389993
O      11.83480      9.59950     14.77002        -2.279134      0.632458     -0.296049
O      11.70852      9.61788      6.21563        -1.391255     -0.507327      1.311534
O      11.75914      9.88362     10.72498         0.038913      0.338889     -0.007309
O       1.67777      3.89034      2.36648         1.086664      0.800011     -0.295633
O       2.14974      3.64277     15.01635         0.488836      0.904093     -1.059406
O       1.85053     15.51236      2.34617         0.535560      0.938835      0.079414
O       1.61799     15.36617     15.04777         1.244108      1.264245     -0.901566
O      13.46361      3.96868      2.41635         0.770173     -0.838891      0.038537
O      13.50066      3.94230     14.97457         0.351401      0.171639      0.210778
O      13.63275     15.60066      2.25083         0.026269      1.039834      1.131374
O      13.61644      0.16222     15.12475         0.163653     -0.777992     -0.698318
O       1.88847      3.85464      6.82493         0.214483     -0.086516     -0.878668
O       1.68497      0.20020      6.66488         0.928981     -1.969011      1.063884
O      13.93335      4.00288      6.15380        -0.661991     -2.311286      1.176898
O      13.69557     15.47407      6.26628         0.372143      1.762428      1.260003
O       2.24603      3.67469     10.92335        -0.350625      3.979697      0.328880
O       2.07908     15.59894     10.40059        -0.783788     -0.024184      0.357021
O      13.58035      3.96477     10.64227         0.572495     -1.440562      1.105481
O      13.78004      0.20136     10.80167        -0.249342     -3.006471     -0.553546
O       2.11748      7.68907      2.37486         0.128171      0.760294     -0.317540
O       2.23733      7.79294     14.67694        -0.578114     -1.228221      0.172355
O      13.61375      7.91964      2.26024        -0.182607     -0.243230      0.643772
O      13.83580      7.74833     14.78296        -0.179804     -1.321751      0.886769
O       1.79801      7.82334      6.76910         0.224764      0.338098     -0.335875
O      13.70604      7.69981      6.62343         0.048738      0.248134      0.583794
O       1.89749      7.82532     10.50191         0.043412     -1.142398      0.631673
O      13.51056      7.77840     10.32032         0.430623     -1.042406      1.033374
O       1.97738     11.51964      2.58675        -0.112509     -0.514194     -0.039616
O       2.00447     11.60896     14.92089         0.271445      0.182779     -0.546912
O      13.62647     11.63400      2.12944         0.368969      2.330714      1.224855
O      13.92590     11.59971     15.00293        -1.448936      0.558492     -1.038778
O       2.07072     11.58080      6.20497         0.919885     -2.095925      0.207611
O      13.60807     11.62506      6.67325        -0.872033      1.249777     -0.087273
O       2.17736     11.66648     10.59644        -0.604403      2.138249      0.922422
O      13.80472     11.99446     10.80467        -0.187110     -0.725738      0.309276
O       5.89489      3.98633      2.24662         0.060814     -0.767000      0.353812
O       5.81512      3.91735     14.73770         1.533048     -1.624094     -0.396981
O       5.72727     15.60536      2.06771         0.426924      1.282427      0.543624
O       5.85303     15.48447     14.97031         1.499089     -0.766165      0.076787
O       5.68691      4.03849      6.56129         1.022734     -1.154112     -0.271135
O       6.06240      0.20598      6.56764        -0.409224     -2.341232     -0.371393
O       6.00285      3.93958     10.70973        -0.236794     -1.344957      0.053524
O       5.98118     15.59035     10.64028         0.375636      0.247778     -0.246242
O       5.47500      7.84898      2.65164         0.568782      1.469182     -1.347693
O       5.80365      7.64942     14.55711        -0.564891      1.754827      1.276699
O       5.90141      7.79508      6.52136        -1.048177      0.132308     -0.625469
O       5.87697      7.74564     10.57301        -0.317183      1.236053     -0.159245
O       6.05578     11.75029      2.13000         0.727520     -0.564608      1.017666
O       6.07758     11.47799     14.76463        -1.051216      1.634610      0.156750
O       5.98288     11.65234      6.56173        -1.166990      2.706931      0.007045
O       5.89405     11.70809     10.41460        -1.539860      0.296541      0.477395
O       9.60242      3.95474      2.30702         0.508363      0.055620     -0.333312
O       9.68160      3.90247     14.61141        -0.153437     -0.762304      1.039950
O       9.81513      0.20988      2.43887        -1.499928     -1.045466     -0.376410
O       9.74694     15.47737     14.76301         0.480407      0.621509      0.545059
O       9.36242      4.19625      6.68985         1.342578     -3.214588      0.165999
O       9.75859     15.57692      6.27844        -0.137321     -0.290584      0.032155
O       9.77155      3.96203     10.67138        -0.765504     -1.423334     -0.661638
O       9.65365     15.53573     10.79888         0.357150      1.518630     -0.139449
O       9.95809      7.78438      2.30096        -1.339865      2.242139      0.581125
O       9.86271      7.76628     14.61851        -0.366274      2.699208      0.273434
O       9.44427      7.65820      6.28110         1.631078      3.025270      0.901517
O       9.96848      7.76987     10.69617         0.080630      2.392549      0.457388
O       9.62197     11.71975      2.38642        -0.095216      1.537624      0.347610
O       9.92611     11.69616     14.98437        -0.543224     -1.172696     -0.282234
O       9.96604     11.78440      6.63381        -0.681940     -0.298536     -0.606369
O       9.57375     11.82118     10.66260         0.764989     -2.220967     -0.579618
