  # total energy = -7881.10023931 
CRSYTAL
PRIMVEC
    15.464    0.0000000000000000    0.0000000000000000
     0.0000000000000000   15.464    0.0000000000000000
     0.0000000000000000    0.0000000000000000   17.350608
PRESSURE
0.105828 -0.089645 -2.16341 0.399364 -0.13536 0.009522
PRIMCOORD
320 1
Pb       3.87487      3.53249      4.26580        -0.071058      0.880263      0.798166
Pb       3.84973      3.73863     17.17424        -0.427064      0.811677      1.141805
Pb       3.96620     15.37921      4.28285        -0.496172     -0.245367      0.144179
Pb       3.86586      0.06011     17.34442        -0.550268     -0.931551      0.131521
Pb      15.27381      3.83711      4.24281         0.498311     -0.026724      0.624196
Pb      15.33124      3.79328      0.00062         0.780642      0.263500      0.488992
Pb      15.31804     15.43238      4.18643         1.030841      0.107746      0.911293
Pb      15.30748      0.01217     17.31235         0.607614     -0.491970     -0.394273
Pb       3.87123      3.78649      8.56714        -0.344762      0.486300      0.266101
Pb       3.95788      0.00017      8.59636        -0.996131     -0.163528      0.724289
Pb      15.44735      3.97789      8.51212        -0.305441     -0.043516      0.640964
Pb       0.08767      0.12698      8.70467        -0.176078     -0.649252     -0.111382
Pb       3.82169      3.92995     13.00943        -0.317275      0.216660      0.107903
Pb       3.79905      0.12169     12.90912        -0.103043     -0.846850      1.025386
Pb      15.24695      3.84114     12.95496         0.654384     -0.187405      0.835589
Pb      15.39144     15.36328     12.94171         0.113597      0.064524      0.702089
Pb       4.02352      7.59574      4.19071        -0.591156      0.527833      0.732520
Pb       3.93888      7.78187      0.03523        -0.621493     -0.288692     -0.305173
Pb       0.07167      7.76765      4.26519        -0.055067     -0.096557      0.790495
Pb       0.03807      7.78982      0.05631         0.191420     -0.722186     -0.003941
Pb       3.68924      7.53991      8.64084        -0.023263      0.668158      0.235492
Pb      15.33860      7.82709      8.68828         0.094711     -0.043222     -0.354062
Pb       3.89459      7.80163     12.94177        -0.073918     -0.176070      0.601459
Pb      15.36158      7.57374     12.92551         0.633050      0.626018      1.149559
Pb       4.07986     11.48878      4.37205        -0.760892      0.235661      0.429029
Pb       3.97631     11.59099     17.29957        -0.577447      0.179918      0.198374
Pb      15.46048     11.64514      4.32203         0.499640     -0.004249      0.093013
Pb      15.40038     11.60372      0.02588         0.856537      0.338277      0.332031
Pb       4.03069     11.46516      8.84652        -0.851973      0.571096     -0.066895
Pb       0.08005     11.69973      8.58391        -0.253753     -0.310359      0.729247
Pb       3.83909     11.64238     12.93540        -0.157078     -0.484416      0.206283
Pb      15.41303     11.25163     13.00640         0.633570      0.767038     -0.214291
Pb       7.73825      3.74644      4.30592        -0.398604      0.622335      0.329390
Pb       7.66487      3.75913     17.25954         0.023277      0.198334      0.218167
Pb       7.75261     15.40717      4.28658        -0.139037     -0.168321      0.187266
Pb       7.67668      0.00760     17.26574         0.010074      0.010666      0.032042
Pb       7.63504      3.80512      8.48256         0.342465      0.416363      0.476103
Pb       7.79969     15.31125      8.65844         0.153741      0.287885      0.367748
Pb       7.73340      3.98584     12.97887        -0.009991     -0.209232      0.568702
Pb       7.61821      0.10946     12.94369         0.682040     -0.879855      0.375868
Pb       7.80763      7.69179      4.22806         0.180494     -0.107783      0.568897
Pb       7.77011      7.86423      0.00651         0.316716     -0.299950      0.074046
Pb       7.56549      7.64097      8.59012         0.801854      0.314658      0.636100
Pb       7.87053      7.81222     13.00300        -0.354529      0.157912      0.079720
Pb       7.76856     11.57098      4.41878        -0.145931      0.269904     -0.179432
Pb       7.72321     11.67701     17.22057         0.176718     -0.476124      0.649539
Pb       7.95091     11.49292      8.61964        -0.677729      0.174216      0.889866
Pb       7.59009     11.56952     12.82168         0.695616      0.749914      0.799780
Pb      11.44190      3.85226      4.37043         0.512749      0.117616      0.015539
Pb      11.50899      3.73831     17.23529        -0.351115     -0.042356      0.902400
Pb      11.58731      0.03412      4.35415        -0.134793      0.045982     -0.305833
Pb      11.56720     15.27305     17.22383        -0.047245      0.753220      0.437405
Pb      11.56400      3.85441      8.71022         0.476545     -0.243986     -0.736593
Pb      11.64240      0.00940      8.62763         0.199241     -0.021862     -0.311540
Pb      11.48412      3.87886     12.86316         0.193310     -0.418029      0.593551
Pb      11.44199      0.07995     12.95253        -0.392871     -0.679772      0.229940
Pb      11.52475      7.67902      4.16778        -0.415688      0.570351      1.487843
Pb      11.47057      7.61217      0.05335         0.344307      0.465997     -0.258423
Pb      11.41103      7.71396      8.56941         0.589130      0.830577      0.362417
Pb      11.60657      7.51047     12.95577        -0.404126      0.851924      0.392773
Pb      11.62595     11.68502      4.35849        -0.684146     -0.491217      0.141839
Pb      11.61541     11.64873     17.30862        -0.850348     -0.662078      0.893634
Pb      11.76129     11.73688      8.69630        -0.191760     -0.830000     -0.444985
Pb      11.55592     11.48308     12.86606        -0.656457      0.566017      0.805787
Ti       1.87574      1.89712      2.32631         0.394042     -0.595487     -0.422931
Ti       1.78518      1.91043     15.33062         0.393507     -0.915669     -1.294061
Ti       1.90368     13.45620      2.34255         1.174187      0.619370     -0.654047
Ti       1.91390     13.48399     15.26756        -0.116399      0.816638      0.397889
Ti      13.50427      1.92019      2.28629        -1.235583     -0.375695      0.147008
Ti      13.44457      1.90667     15.32758         0.082776     -0.626386     -0.660546
Ti      13.43369     13.48804      2.33134         0.644079      0.935935     -0.184032
Ti      13.54709     13.33721     15.34243        -0.284250      2.224435     -2.097747
Ti       1.89028      1.96395      6.71528         0.287337      0.111149     -2.078919
Ti       1.96442     13.53465      6.65669        -0.065736     -0.269505      0.214525
Ti      13.51447      1.90665      6.64298        -0.376305      0.226185     -0.045352
Ti      13.57739     13.51141      6.55655        -0.478272      0.595066      1.264839
Ti       1.90620      1.95173     11.10218        -1.152928      0.350237      0.378368
Ti       1.89406     13.50581     11.10727        -0.845751     -1.033001     -0.908773
Ti      13.43500      1.87637     11.06439         0.132175      0.230623     -1.322844
Ti      13.49694     13.44567     11.02578         0.394466      0.387747     -0.366101
Ti       1.94846      5.70209      2.39848         0.015991      0.916277      0.386416
Ti       1.91516      5.78919     15.38741         0.147608      0.974954      0.337324
Ti      13.53207      5.82646      2.44083        -0.757339     -0.255672     -0.924578
Ti      13.50931      5.75725     15.45442         0.460261      0.989683     -1.286126
Ti       1.86897      5.78498      6.56941        -0.481343      0.188927      0.934812
Ti      13.42711      5.82751      6.64345         0.901727      0.112366     -0.140713
Ti       1.90077      5.75375     11.01448         0.089030      0.143461     -0.224906
Ti      13.54217      5.75793     10.93510        -0.505528      0.078940     -1.763701
Ti       1.98169      9.62393      2.36646         0.322577      0.426998     -0.306617
Ti       1.89706      9.68262     15.44865         1.298254     -0.761616     -1.454077
Ti      13.50193      9.65189      2.51673        -0.676592      0.656030     -0.977250
Ti      13.55282      9.63434     15.47104        -0.791727     -1.127517     -0.052393
Ti       1.99919      9.64724      6.71509         0.104295      0.589349     -0.696609
Ti      13.57607      9.69182      6.58063        -0.672174     -0.429228      0.436629
Ti       1.90551      9.54249     11.02336        -0.125794      1.764354     -1.365924
Ti      13.41218      9.54696     11.03549         0.526613      0.346324     -1.141616
Ti       5.81617      1.90667      2.35620         0.580919     -0.403372     -0.370701
Ti       5.64779      1.97241     15.23110         0.712317     -0.997345      1.402032
Ti       5.78937     13.48793      2.30764        -0.291824      0.113548      0.768505
Ti       5.74792     13.54318     15.29339        -0.062598      0.289122     -1.422525
Ti       5.85031      1.83985      6.71334        -0.041774      1.738337     -2.290551
Ti       5.79603     13.53357      6.80151         0.081518     -0.982825     -1.248071
Ti       5.76346      2.01510     10.94735         0.190714     -1.021905      1.234992
Ti       5.72853     13.57889     11.02520         1.412956      0.010078     -0.548327
Ti       5.82955      5.80598      2.29617        -0.485352     -1.580915     -1.852869
Ti       5.81915      5.88225     15.37458        -0.343584     -0.146318     -0.805610
Ti       5.72171      5.82592      6.70839         0.446768     -0.543463     -1.611042
Ti       5.86255      5.80674     11.04964        -0.446163      0.595287     -1.224687
Ti       5.83477      9.61585      2.36356         0.911028      1.276452      0.024958
Ti       5.89089      9.64018     15.36320        -0.760723      0.570036     -1.618529
Ti       5.80041      9.71122      6.86141        -0.318983     -0.128849     -2.460145
Ti       5.79129      9.63465     10.92418         0.253113     -0.132565      0.773245
Ti       9.68598      1.92179      2.34656         0.130549     -0.559092     -1.924760
Ti       9.60281      1.88761     15.32353        -0.605755     -0.954441     -1.153867
Ti       9.64785     13.55278      2.37588        -0.377621      0.027956     -0.467728
Ti       9.65208     13.48135     15.37307        -0.301580      0.364385     -3.166513
Ti       9.68116      1.91670      6.66356         0.456648      0.212502      0.043311
Ti       9.67473     13.47267      6.80004         0.585077      0.419997     -1.135034
Ti       9.50065      1.94914     10.87643         0.776789     -0.557593      0.380967
Ti       9.64607     13.58860     10.84376        -1.035699     -0.332834      0.331298
Ti       9.65992      5.75775      2.27023        -0.193069     -0.381473     -0.833141
Ti       9.64271      5.75530     15.36240        -0.879574      0.300693      0.029313
Ti       9.60886      5.80971      6.69395        -0.118658     -0.252011     -2.007621
Ti       9.65260      5.75753     10.94527        -1.089242      1.170875      0.310547
Ti       9.62173      9.73806      2.31394         0.496055      0.175807     -0.582482
Ti       9.74682      9.67575     15.29184        -0.569836      0.117045     -0.575782
Ti       9.69631      9.65696      6.67076         0.397157      0.389192      0.103142
Ti       9.62428      9.69101     10.97396         0.424965     -0.289788     -1.881212
O       1.83796      1.96270      0.54429        -0.052231     -0.188133      0.817185
O       1.80187      1.88685     13.50649         0.266089     -0.036258      1.251205
O       2.00477     13.50567      0.55931        -0.642469     -0.136572      1.480576
O       1.81915     13.42872     13.46683         0.420835      0.156259      0.844309
O      13.53112      1.88962      0.50882         0.069885     -0.037797     -0.130081
O      13.31843      2.18598     13.56817         0.335434     -0.480572      0.289107
O      13.53586     13.64113      0.53025        -0.101153     -0.473220      0.346260
O      13.35560     13.30568     13.53697         0.657365     -0.100118      1.165420
O       1.90442      1.94404      4.90531         0.049325      0.088867      1.082785
O       2.04112     13.48640      4.92010        -0.452851      0.163648      0.340856
O      13.50277      1.98399      4.84787        -0.002663     -0.004378      0.572151
O      13.53689     13.52232      4.81820        -0.116666     -0.089100     -0.727284
O       1.86697      2.07652      9.35616        -0.004087     -0.392945     -0.457752
O       1.66427     13.50846      9.32610         0.622705      0.213283      0.584768
O      13.36989      1.90325      9.23880         0.306579     -0.179998      1.382623
O      13.53275     13.58043      9.21934        -0.261008     -0.108679      1.330775
O       1.80880      5.83752      0.70240        -0.099050     -0.141422     -1.612333
O       1.91595      6.01792     13.67201         0.139092     -0.500700     -0.706448
O      13.51745      5.91293      0.67090        -0.180863     -0.012006     -0.276277
O      13.53146      5.72867     13.63859        -0.483202      0.049226      0.729633
O       1.99944      5.72185      4.86244        -0.238093      0.348933     -1.094641
O      13.48762      5.68420      4.84613        -0.207662      0.186500      0.592861
O       1.83814      5.70624      9.25922         0.410323      0.258263      0.587893
O      13.43873      5.84674      9.12170         0.195666     -0.228263      1.794785
O       2.04538      9.59413      0.56773        -0.571531      0.354672      0.943768
O       1.83630      9.56612     13.59642         0.114294      0.437349      1.209274
O      13.39032      9.67606      0.74124         0.666374     -0.226800      0.136412
O      13.63158      9.72137     13.72337        -0.448451     -0.222265     -0.518106
O       2.22580      9.67348      4.91279        -0.679277     -0.201228      1.487751
O      13.54463      9.75884      4.81117         0.160709      0.113552      0.171054
O       1.93626      9.65673      9.22790        -0.024028     -0.147416      0.683750
O      13.49717      9.59181      9.29837        -0.296432     -0.183882      0.048007
O       5.81132      1.90134      0.58525         0.148236      0.114617     -0.146809
O       5.61081      1.91556     13.50905         0.138574      0.226716     -0.179941
O       5.74876     13.47046      0.57260         0.203470      0.020605     -0.996711
O       5.80920     13.56816     13.42770        -0.375942     -0.306099      1.894566
O       5.89206      1.79617      4.88520        -0.394878      0.252454      0.957519
O       5.85584     13.52586      5.00150        -0.073541      0.073114      0.972375
O       5.66326      2.02544      9.20664         0.281234     -0.151804     -0.411350
O       5.83693     13.55561      9.22852        -0.509167      0.492723      0.611683
O       5.69201      5.84787      0.49745         0.856525     -0.549305      1.062328
O       5.85704      5.91367     13.54564        -0.266292     -0.287774      1.118844
O       5.89636      5.81451      4.91903        -0.497636      0.210136      0.745256
O       5.95758      5.74269      9.17098        -0.617044      0.126606      1.737032
O       5.92718      9.83099      0.63604         0.006664     -0.522681     -0.713932
O       5.91843      9.63043     13.54225        -0.332201     -0.035243      1.140916
O       5.62683      9.65203      4.99044         0.599878      0.147143      1.008469
O       5.90564      9.74380      9.17306        -0.416622     -0.365243     -0.195139
O       9.67254      1.91251      0.49498        -0.339330      0.072507      0.593861
O       9.45817      1.69927     13.51633         0.808597      0.807558      1.250946
O       9.74744     13.57478      0.60620        -0.193600      0.005494     -0.142506
O       9.57645     13.61587     13.53843         0.452339     -0.263716      1.703735
O       9.78690      1.91734      4.87593        -0.159984      0.268828      0.152389
O       9.64950     13.40219      5.00287         0.023411      0.283045     -0.232929
O       9.47914      1.98305      9.12030         0.457808      0.108002     -0.054940
O       9.56313     13.61474      8.98776         0.502991      0.066604      1.636954
O       9.64324      5.75938      0.45295         0.371420     -0.158064      0.532672
O       9.60803      5.73406     13.58727         0.095939      0.315936     -0.073276
O       9.57708      5.71848      4.82662         0.215403      0.275721      1.417475
O       9.55331      5.87847      9.21233         0.096943     -0.462120     -0.368079
O       9.51637      9.73739      0.52154         0.425958     -0.366664      0.991048
O       9.68210      9.66717     13.47943        -0.027789     -0.003831      0.786185
O       9.66504      9.67089      4.91080        -0.250734      0.199445     -0.205859
O       9.65139      9.72073      9.10660        -0.021739     -0.287056      1.586031
O       3.90983      1.87690      2.66345        -0.664042     -0.141826      0.051019
O       3.73237      1.78146     15.81658         1.322385      1.116104     -0.950728
O       3.90886     13.65467      2.78749        -0.316619     -0.754478     -0.448633
O       3.80333     13.54560     15.80586         0.770401     -0.220380     -0.948768
O       0.01606      2.01197      2.71663        -0.847958     -0.575462     -0.296621
O      15.38870      1.99640     15.68357        -0.258473     -0.126810      0.250483
O      15.41107     13.51430      2.79580         0.452170     -0.464941     -0.598652
O      15.45584     13.52194     15.77900        -0.401726     -0.398387     -0.166578
O       3.78927      2.09473      7.01596         0.437065     -1.244849      0.146956
O       3.85154     13.62167      7.07448         0.055115     -0.179549      0.286182
O      15.40237      2.04016      7.06909         0.303098     -0.540806      0.032358
O      15.39275     13.56523      7.00623         1.221213      0.177024     -0.060226
O       3.74732      1.89862     11.50779         0.862243      0.596883     -0.883324
O       3.82555     13.58730     11.36450        -0.027107     -0.230010     -0.078705
O      15.31489      1.97985     11.52409         0.387941     -0.308793     -0.624571
O      15.35363     13.36760     11.42495        -0.369038      0.242901      0.058771
O       3.85769      5.86649      2.49250         0.745587     -0.094247      0.998378
O       3.86605      5.90324     15.75129         0.124857     -0.316461     -0.084544
O      15.38265      5.87488      2.73476         0.380172     -0.456721      0.424465
O       0.00037      5.92440     15.67221        -0.410358     -0.458939      0.716694
O       3.76361      5.79431      7.05183         1.118648      0.308417      0.050176
O      15.39702      5.81975      7.04451         0.264151      0.023234     -0.414823
O       3.86660      5.85602     11.45693        -0.169114     -0.246154     -0.463468
O      15.40423      5.81638     11.40909         0.104190     -0.604232     -0.462387
O       4.04144      9.59356      2.68071        -1.756558     -0.342871      0.097068
O       3.90541      9.63999     15.77135         0.447050      0.400096     -0.199959
O       0.08730      9.72783      2.88745        -0.866539     -0.074469     -0.772132
O       0.01695      9.60326     15.83234        -0.628933      0.822667      0.308140
O       3.90178      9.79191      7.26491        -1.046282     -0.727019     -0.202967
O      15.43818      9.65716      7.16568         0.230219      0.246918     -0.902202
O       3.87317      9.56716     11.35527         0.302775      0.114377     -0.162226
O      15.42556      9.51858     11.34411        -0.836797      0.837960      0.440901
O       7.79798      2.04798      2.78624        -0.171003     -0.767006     -0.498471
O       7.64054      1.74978     15.62256        -0.316342      0.847168      0.207310
O       7.69314     13.53216      2.73024         1.324516     -0.463673      0.090915
O       7.74912     13.48076     15.67680        -0.866895      0.422619      0.223190
O       7.76645      2.00367      6.94598        -0.920550     -0.099349      0.093644
O       7.74786     13.48444      7.11287        -0.500435      0.524170     -0.198055
O       7.69307      2.02777     11.34258        -1.896206     -0.293309     -0.087876
O       7.71001     13.52356     11.32113        -0.471727      0.073221     -0.191954
O       7.75851      5.65322      2.59197         0.336901     -0.199287      0.269636
O       7.72121      5.68637     15.76447        -0.358289      0.338544     -0.147370
O       7.68314      5.80070      7.06154        -0.167674     -0.153156     -0.106496
O       7.73451      5.89332     11.55692        -0.462885     -0.884424     -0.841452
O       7.77112      9.73151      2.83930        -0.050520     -0.224186      0.005775
O       7.76140      9.66738     15.73061        -0.331318      0.434126     -0.055887
O       7.67763      9.77354      6.98481         0.585170      0.066624      0.092775
O       7.77069      9.73272     11.39278        -1.175625     -0.331096     -0.343655
O      11.55187      1.74386      2.66625         1.438458      0.183369      0.215033
O      11.56179      1.89829     15.67974        -0.257683      0.371494      0.030680
O      11.59530     13.61036      2.76719        -0.212072      0.065838      0.008391
O      11.61484     13.45852     15.69624         0.115461      0.015622      0.320082
O      11.59742      1.99592      7.09714        -0.007368     -0.147891      0.005294
O      11.60331     13.53766      7.10981         0.392123      0.306144     -0.113404
O      11.39962      1.97009     11.37467         1.102775     -0.039433     -0.091741
O      11.44582     13.70858     11.32190         1.184030     -0.529564     -0.320101
O      11.57122      5.88844      2.76385         0.230591     -0.495328     -0.457362
O      11.52007      5.80451     15.66827         0.472586     -0.238992      0.421222
O      11.53197      5.84389      7.08542        -0.227750      0.254133     -0.300395
O      11.51917      5.82567     11.35260         0.291604     -0.567253     -0.189545
O      11.49314      9.64936      2.80727         0.948620     -0.272294     -0.148928
O      11.58472      9.78834     15.73951         0.618685     -0.747462      0.007950
O      11.59411      9.60694      7.02859         0.389210      0.197364     -0.126754
O      11.51556      9.49073     11.42176         0.523057      0.226182      0.108488
O       1.90969      3.86104      2.76895         0.206272     -0.823123     -0.166295
O       1.95535      3.82012     15.68240        -0.077315      0.766166     -0.040256
O       1.96831     15.40659      2.80799        -0.736967      0.842857     -0.535360
O       1.90662     15.46357     15.79537        -0.647590     -0.270113     -0.468178
O      13.37045      3.77377      2.56884         0.579296      1.140180      0.481610
O      13.55554      3.89729     15.92558        -0.655293     -0.038427     -0.682844
O      13.54252     15.44986      2.76441         0.056711      0.201607     -0.423536
O      13.54190     15.44224     15.50866        -0.044760      0.302610      0.476030
O       1.89125      3.93395      7.05380        -0.205937     -0.615864      0.068175
O       1.99029      0.05562      7.23117        -0.761458      0.047797     -0.424450
O      13.47886      3.91281      7.13282        -0.358752     -0.170650     -0.390958
O      13.50036     15.44871      6.92448        -0.120938      0.848491      0.303118
O       1.88702      3.87033     11.57762         0.100645      0.534469     -0.485307
O       1.78294     15.41005     11.45010         0.043194      0.582894     -0.406647
O      13.47194      3.87570     11.41385        -0.592391      0.288483     -0.478268
O      13.54972      0.00849     11.52615        -0.740988     -0.314366     -0.680681
O       1.89393      7.76458      2.81731         0.378999     -0.281614     -0.217931
O       2.01856      7.83425     15.88097        -0.613169     -0.923720      0.082552
O      13.50467      7.80785      2.95622         0.400658     -0.740238     -0.837565
O      13.48562      7.74053     15.81371        -0.294766     -0.141171      0.113039
O       1.87715      7.76326      7.12339         0.442578     -0.360766     -0.312653
O      13.56901      7.78281      7.04308        -0.422587     -0.443121     -0.384529
O       1.78646      7.74048     11.30532         0.803624     -1.970791      0.341539
O      13.46919      7.62392     11.45122        -0.176627     -0.046245     -0.029642
O       2.01010     11.55016      2.78408        -0.049560      0.350962     -0.359095
O       1.90927     11.65328     15.81359        -0.183235     -0.867047     -0.311862
O      13.39037     11.65442      2.73758         0.685139     -0.671786     -0.045105
O      13.50750     11.56507     15.94462         0.776781     -0.422511     -0.465394
O       1.83838     11.60935      7.15533         0.645061      0.369453     -0.741249
O      13.50379     11.62813      6.97959        -0.113485     -0.478566      0.140763
O       2.01013     11.50313     11.48758        -0.426017      0.433149     -0.304814
O      13.27877     11.47329     11.33215         0.613099      0.949982     -0.230670
O       5.82222      3.77365      2.79451        -0.248940      0.883855     -0.195542
O       5.64546      3.87671     15.71772         0.610505     -0.786962     -0.636120
O       5.92416     15.40788      2.74282        -0.185241      0.964966     -0.044195
O       5.71884     15.44290     15.77931         0.154729     -0.178970     -0.516555
O       5.65515      3.77847      6.96860         0.871585      1.276766      0.338841
O       5.75239      0.05281      7.15890         0.360417     -0.806477     -0.099001
O       5.71171      3.82979     11.43683         0.094230      1.024203     -0.131152
O       5.72487      0.05765     11.49030         0.003174      0.215860     -1.207994
O       6.01274      7.65292      2.62457        -0.399540      0.705170      0.309662
O       5.90811      7.76017     15.85286        -0.259692     -0.061730     -0.457141
O       5.74983      7.78589      7.08769        -0.262171     -1.143591      0.117388
O       5.82081      7.73299     11.36080         0.209816     -0.218045     -0.394128
O       5.78087     11.63181      2.82525         0.472728     -0.812584     -0.296155
O       5.79195     11.63085     15.72398         0.051194     -0.038642     -0.304133
O       5.75747     11.65344      7.23693        -0.003766      0.168500     -0.518264
O       5.71444     11.54471     11.32173        -0.169663      0.577631      0.069104
O       9.95253      3.77243      2.61444        -0.957369      1.372330      0.087005
O       9.50616      3.77010     15.59821         0.678534      0.388591      0.261757
O       9.65851      0.01531      2.75336        -0.421116     -0.762703      0.276989
O       9.67871     15.39312     15.75107         0.057442      0.312557      0.156287
O       9.71440      3.94345      7.01454        -0.363389     -0.300679      0.248848
O       9.63774      0.08892      7.05186         0.109368     -0.772114     -0.023460
O       9.48076      3.85359     11.40099         0.683293      0.868425     -0.406783
O       9.49696      0.03174     11.25850         0.057017      0.054301     -0.260548
O       9.66894      7.64914      2.57088        -0.549918      0.706283      0.229213
O       9.58674      7.79763     15.74217         0.413516     -1.111739     -0.134222
O       9.49491      7.81033      7.05079         0.376517     -1.303498     -0.118733
O       9.56597      7.78441     11.28444         0.188755     -1.278269      0.357555
O       9.81824     11.62166      2.64418        -0.745809      0.232707      0.415599
O       9.71191     11.53620     15.77733        -0.444287      1.102310     -0.224470
O       9.77295     11.62109      7.16378        -0.269558     -0.569842     -0.468746
O       9.66482     11.63331     11.21695         0.316813      0.280125      0.091142
