  # total energy = -7838.72110160 
CRSYTAL
PRIMVEC
    15.6080000000000005    0.0000000000000000    0.0000000000000000
     0.0000000000000000   15.6080000000000005    0.0000000000000000
     0.0000000000000000    0.0000000000000000   16.6239999999999988
PRESSURE
2.94514 2.52037 -1.86966 0.278015 0.074975 -0.177727
PRIMCOORD
320 1
Pb       3.52808      3.45030      4.25475         0.914868      1.063094     -1.123266
Pb       3.75263      3.81405     16.53434         0.254386      2.541580      1.321162
Pb       3.71996     15.38176      3.89491        -0.213856      0.680263     -0.006625
Pb       3.96105      0.06295      0.09649         0.031132     -1.368225      0.120215
Pb      15.31964      3.86943      4.05812         0.016317     -0.180789      0.777210
Pb       0.00432      4.05868     16.40469         0.428438     -0.530050      0.167958
Pb       0.00612      0.02491      3.96028         0.714646      0.749438      0.431375
Pb      15.32817      0.10772      0.16338         0.336199      0.083131     -0.727955
Pb       3.89682      4.10536      8.20299        -0.128818     -0.806414     -0.084133
Pb       4.04446     15.58896      8.20623        -0.945711     -0.547724     -0.309157
Pb       0.25783      3.65958      8.65635        -1.616278      0.405353     -1.056599
Pb       0.21719     15.48644      8.67773         0.656511      1.307691     -1.213567
Pb       3.81248      3.93223     12.73552         0.134531      0.699551     -1.036685
Pb       3.86939     15.46055     12.84639         1.074483      0.616750     -0.737688
Pb      15.55026      4.21660     12.45173         0.049588      0.583889      0.115671
Pb      15.42197     15.45731     13.04017         0.865786      1.043267      0.109527
Pb       3.90482      7.36956      4.04792         0.586108      0.871327      0.152909
Pb       3.91646      7.45393     16.51062        -1.103708      0.547861      0.427886
Pb      15.53849      7.42446      4.49965        -0.274280      0.583845     -0.148340
Pb      15.46906      7.71355     16.58742         1.448792      0.514192      0.795821
Pb       3.98380      7.64513      8.14526         0.059450      0.359797     -0.554909
Pb      15.54066      8.03423      8.25952        -1.338711     -0.528682     -0.302760
Pb       3.98800      7.69160     12.17122        -0.435026     -0.932821      1.052037
Pb      15.25430      8.01121     12.42101         0.655082     -1.326647      0.391527
Pb       3.95828     11.65691      4.16937        -1.314307     -0.148673     -0.154301
Pb       3.87769     11.45950     16.55093        -1.116053      1.092074      0.067108
Pb       0.01302     11.78725      3.94952         0.554427      0.573234     -0.174406
Pb       0.14288     11.50377      0.08796        -0.296272      0.503597      0.069002
Pb       3.84174     11.44767      7.85791         0.448436      0.398494      2.703752
Pb       0.16738     11.91581      8.61082         0.307380      0.171298      0.039595
Pb       4.06692     11.38745     12.45272        -0.783276      0.683900     -0.273568
Pb       0.09528     11.63497     12.73314        -0.209271      0.411685     -0.394660
Pb       7.49739      3.74251      4.18176         0.472817     -0.901060     -0.116979
Pb       7.66161      4.23429      0.14691         0.723807     -1.469533     -0.594595
Pb       7.65125     15.43319      4.46968        -0.942400      1.198009     -1.310391
Pb       7.65254     15.33576      0.07451         0.134765      1.404527     -0.750801
Pb       7.91202      3.74501      8.35564        -0.084997     -0.788569      0.291137
Pb       7.72619     15.48273      8.17581        -0.009184      0.973775      0.302719
Pb       7.65087      3.89153     12.44817         0.452436     -0.260731     -1.063387
Pb       7.80362      0.22288     12.31659        -0.085640      0.268184      0.385823
Pb       7.90937      7.86088      4.35636        -0.329166      0.356347     -0.915570
Pb       7.63300      7.55770      0.09955         0.360081      0.395539     -0.169660
Pb       7.61704      7.79617      8.21059         0.316195      0.278215      0.057855
Pb       8.05426      7.77930     12.12313        -1.051676     -1.199130      0.842739
Pb       7.98887     11.48712      4.25710        -0.052284      0.187872     -0.872540
Pb       8.12818     11.84558      0.05370        -1.452923      0.361198      0.187005
Pb       8.43810     11.59241      8.24343        -1.360162      0.150307      1.358863
Pb       7.49279     11.24282     12.28824         1.811792      1.042666      0.490289
Pb      11.41385      3.64999      4.50586         0.330003      0.918628     -1.366125
Pb      11.51257      3.94949      0.10542         0.215502      0.097479      0.291163
Pb      11.78262      0.13690      4.43874        -0.237796      0.120637     -1.082834
Pb      11.51976      0.12637      0.09456        -0.023981     -0.087755     -0.045517
Pb      11.80517      3.54240      8.38817         0.043584      0.063829      0.515988
Pb      11.96680     15.38094      8.64430        -2.136667      3.044453     -0.717409
Pb      11.65295      4.03622     12.31808        -1.023959     -0.202620      0.089466
Pb      11.81856     15.53453     13.08412        -0.958637      1.022118     -1.959006
Pb      11.75897      8.00410      4.22060         0.692508     -0.704217     -1.049332
Pb      11.49107      8.05230      0.03487         0.216041     -1.079924      0.532913
Pb      11.78380      7.70444      8.27094         0.559119      0.449490     -0.012060
Pb      11.56178      7.97369     12.60239         0.407096     -0.265264     -0.730273
Pb      11.69923     12.09241      4.33180         0.311298     -0.150833     -0.873217
Pb      11.47758     11.84066      0.03633         0.931878      0.024203     -0.231464
Pb      11.76226     12.29128      8.69012         0.372232     -2.449119     -0.521866
Pb      12.17020     11.95112     12.77953        -1.718070      0.034181     -0.529818
Ti       1.85553      2.09116      1.88680         0.344743     -1.535066      3.214114
Ti       2.19331      1.89026     14.80783        -6.515347     -0.318316     -1.892788
Ti       1.83699     13.83295      1.75868         1.566537     -1.759884      0.081696
Ti       1.94731     13.59145     14.74322         0.094943      0.933467     -0.430209
Ti      13.40661      1.97318      2.08287        -0.658388      0.874961     -0.317366
Ti      13.58377      2.15934     14.60744         1.764439     -0.389693      0.196843
Ti      13.51974     13.84235      2.09883         0.606240     -0.779298     -0.928187
Ti      13.63642     13.78999     14.82443         0.739989     -1.701096      3.337692
Ti       1.86902      1.86390      6.31685        -1.592875     -0.624754      0.266100
Ti       1.86001     13.63147      6.36051         0.022560      1.909776     -0.033161
Ti      13.55855      1.87456      6.27040         3.393551      1.846909      0.715411
Ti      13.72090     13.92487      6.27274         0.092224     -0.790654     -1.295690
Ti       1.90284      1.94513     10.91121         1.381613      3.609534      0.974810
Ti       2.00164     13.72520     10.87088         1.375396     -1.066848     -1.778639
Ti      13.85352      1.97522     10.66419        -3.475341      1.232629     -1.019895
Ti      13.80880     13.85744     10.49018        -0.656314     -1.106572      2.236376
Ti       1.91164      5.92479      2.15839         1.296970     -0.202543     -1.881460
Ti       1.93821      5.94489     14.55713         0.574485     -1.221373     -0.155618
Ti      13.70365      5.85235      2.05154        -2.563416      0.922468     -0.079198
Ti      13.66667      6.02811     14.73409        -1.684943     -1.445492     -1.781267
Ti       2.00162      5.75227      6.14808        -0.767048     -0.312471     -0.135437
Ti      13.51920      5.79983      6.24814         2.294445     -0.461401      0.011868
Ti       1.88970      5.89347     10.25644         0.919339      0.389945      2.425923
Ti      13.48493      6.03099     10.36305         0.008835     -1.645844     -1.164683
Ti       1.87258      9.78981      2.20879         0.630103     -0.532155     -0.520070
Ti       1.73859      9.68987     14.41313         3.409412     -1.244577      2.063085
Ti      13.62177      9.94759      2.10671        -1.261933     -0.751559     -0.072149
Ti      13.42771      9.73414     14.80268         0.243007      4.256863     -0.912720
Ti       1.86137      9.72799      6.31409        -0.089424     -0.622508     -2.756139
Ti      13.75740     10.15029      6.09377        -0.665981     -1.442271      2.671710
Ti       2.08204      9.69582     10.29071        -0.069013     -1.206695      1.381516
Ti      13.69368      9.93433     10.51573        -1.741984     -1.143528     -0.772325
Ti       5.77289      1.85368      2.07591        -0.439913      0.100898      4.432160
Ti       5.95546      2.01269     14.67626         1.326326     -2.164831     -1.301352
Ti       6.04047     13.64169      2.22140        -2.021122     -0.687849      1.182515
Ti       5.91633     13.65108     14.51154        -1.120626      1.207834     -0.937358
Ti       5.66224      1.82173      6.17645         2.272226     -0.150224     -0.383594
Ti       5.80834     13.36310      6.30858        -0.481632      3.629330     -1.597815
Ti       5.67508      1.86412     10.29835         0.804410      1.331573      1.266333
Ti       6.04080     13.58222     10.37250        -0.427516      0.765442      1.414020
Ti       5.96395      5.74658      2.22800        -1.917224      0.586398      0.171337
Ti       5.97053      5.82219     14.62773        -2.602411     -0.085532     -1.033083
Ti       6.05486      5.74716      6.19646        -4.801436      0.432664     -0.559016
Ti       5.79997      5.86648     10.22121         0.034000     -3.319145      1.242556
Ti       5.70917      9.77155      2.16457         0.054740     -0.083162      0.632323
Ti       5.78519      9.70948     14.62034        -1.715327     -1.709164     -0.354536
Ti       5.90213      9.62589      6.06005        -2.261336     -1.718976      1.187019
Ti       5.90707      9.63409     10.35701        -0.929338     -0.489569     -2.560668
Ti       9.58343      1.93248      2.26378        -0.081852      0.894419     -0.175377
Ti       9.78635      2.00327     14.53162        -4.262589      0.306225     -2.634933
Ti       9.76348     13.82043      2.11344         0.066771     -0.217153      0.016877
Ti       9.65363     13.64047     14.41047        -0.151859      1.291036     -1.183545
Ti       9.71263      1.75900      6.26640        -1.133182      1.063996      2.490451
Ti       9.65941     13.82296      6.16740         2.205748     -0.404935     -0.293824
Ti       9.90947      1.76025     10.38373        -0.896155      3.504428      0.177175
Ti       9.83908     13.70178     10.58422        -0.800919     -0.230753      1.322776
Ti       9.75037      5.83644      2.32063         3.033662     -0.311537      0.054103
Ti       9.85100      5.93969     14.74937         0.127043     -1.285684     -1.635060
Ti       9.74302      5.90019      6.25403         0.199789     -1.736162      0.374857
Ti       9.63552      5.80685     10.20484         0.656994     -0.327307      0.056199
Ti       9.75437      9.76699      1.97749         0.001674      1.329206      0.981844
Ti       9.51952      9.72229     14.57189         0.986377      1.103189     -0.792780
Ti       9.97366      9.72766      6.32626        -0.814003     -0.561667     -0.467547
Ti       9.87327      9.73261     10.37796         1.134480     -0.051860      0.412544
O       1.89002      2.04479      0.12983         0.397160     -0.297053     -1.732511
O       1.92554      2.00992     12.78243         0.066891      0.205995     -0.004872
O       1.78633     13.78349     16.57157        -0.225074     -0.538950      2.081421
O       1.65118     13.67211     12.64440         0.145809      0.332084      0.535338
O      13.02892      1.95610      0.17532         1.048910      0.361306      0.932576
O      13.50340      1.92375     12.66856         0.099839      1.229750      0.315006
O      13.52035     14.05143      0.09156        -0.281409     -0.698964      0.895293
O      13.78910     13.69824     13.04784         0.232836      0.049650     -3.839522
O       1.99618      1.82811      4.25923        -0.725046      0.086545      0.670275
O       1.70967     13.80443      4.53307         0.542708     -1.251722      0.423869
O      13.67704      1.80329      4.33977        -0.122787     -0.225788     -0.117805
O      13.57144     14.03491      4.17944        -0.220962     -0.404349      1.729417
O       1.75736      2.07377      8.31973         0.879496     -0.819535      0.125708
O       1.80641     13.73358      8.51330        -0.371865      0.609560      0.155178
O      13.89353      2.21798      8.50583        -0.386625     -0.909135     -0.614226
O      13.60228     13.76508      8.66791         1.237391     -0.606776     -0.417468
O       2.05180      5.52373      0.09399        -1.407383      1.166387      1.501656
O       2.13290      5.99189     12.77027        -0.256571     -0.711070      1.116317
O      13.88571      5.89874      0.06728        -1.369023      0.562171      1.523574
O      13.66706      5.86312     12.82841        -0.628062      0.145828     -0.175845
O       2.00386      5.71144      4.14601        -0.340616      0.710681     -0.450165
O      13.57532      6.00013      4.26706         0.197117     -0.202431      0.469747
O       1.94495      5.97851      8.45306        -0.014553     -0.605961     -1.010051
O      13.72401      5.81638      8.40700        -0.241948      1.062313      1.430908
O       1.94035      9.79890      0.42189        -0.458909      1.125653     -1.262682
O       2.02021      9.67887     12.68846        -0.498815      0.235816     -1.334546
O      13.40821      9.95935      0.21570         0.991762     -0.207790      1.065638
O      13.32077     10.08612     12.88466         1.839743     -1.637539      0.287857
O       1.76406     10.10965      4.55422        -0.338818     -0.507828     -0.015055
O      13.51232     10.06877      4.39387         0.037360     -0.452265     -2.298855
O       2.01843      9.33082      8.50881        -0.436533      1.578338     -0.292193
O      13.81474      9.77349      8.76322        -0.362017      0.039362     -1.204711
O       5.85305      1.64672      0.42992         0.411914      0.651722     -3.923547
O       5.70337      1.70300     12.91746        -0.468776      1.178219     -0.649883
O       6.14315     13.55294      0.48550        -0.702366      0.202288     -2.500519
O       5.74102     13.89466     12.69057         0.460378     -1.132084      1.725072
O       5.58525      1.94324      4.37234         0.218461     -0.316671      1.140412
O       5.70957     13.66839      4.38205         0.147761     -1.018425      1.567116
O       5.97278      1.90513      8.50492        -0.853978     -0.480206     -0.419226
O       5.66078     13.55349      8.64940         1.506017      0.604062     -0.478753
O       5.93942      5.76589      0.28228         0.410265      0.407301      0.318405
O       5.79361      5.79267     12.86156         0.551273     -0.346133     -0.230764
O       5.91605      5.82113      4.32848         0.350471      0.011331     -1.398983
O       5.86400      5.77463      8.42974        -0.291385      0.372653     -0.346903
O       5.49983     10.07899      0.35401         1.835544     -1.845152      0.089368
O       5.93468      9.34577     12.55988        -0.384794      2.288012      1.508836
O       5.75426      9.41723      4.31026         0.411619      0.829684      0.108669
O       5.62203      9.46372      8.49302         0.800493      0.649901      0.905056
O       9.86204      1.98014      0.43025        -0.499497      0.620713     -0.442772
O       9.83090      2.11794     12.42624         0.641529      0.019683      1.075110
O       9.42674     13.90782      0.00682         1.614005     -1.527249      0.924377
O       9.75606     13.76529     12.47914        -0.075079     -0.528144      2.574462
O       9.74511      1.72098      4.51535         0.408813     -0.377451     -1.485280
O       9.82525     13.85190      4.28002         0.080656     -0.177244      0.551637
O       9.93559      2.05770      8.39575        -1.735217      0.471125     -0.554141
O      10.01983     13.72290      8.70306        -1.327592     -0.809962     -1.221979
O       9.67547      6.00293      0.23622        -0.440558     -0.359120     -0.132755
O       9.86967      6.01333     12.84562         0.001684      0.247305      0.182019
O       9.87102      5.93748      4.40566        -0.667276      0.924346     -0.012907
O       9.59561      5.61042      8.40802         0.082160      0.913539     -0.835381
O       9.66459     10.09846      0.08295         0.089680     -2.123940      0.883709
O       9.43629      9.65883     12.48691         0.982625      0.344494      1.363007
O       9.58268      9.67400      4.40865         0.649298      0.439355      0.975741
O       9.76133      9.43615      8.46010        -0.211194      2.852959     -0.717736
O       3.77021      1.83106      2.23591         0.894834     -0.452463     -0.363740
O       3.83429      2.21507     14.91003         3.323213     -0.747271     -0.587459
O       3.74366     13.70378      1.81125        -0.291904      0.262051      1.045381
O       3.73474     13.87102     14.99372         2.575417     -0.940445     -0.884160
O      15.55362      1.71810      2.06641        -1.351989      0.842138      0.430698
O      15.47083      2.04019     15.00654        -1.527818     -0.404741     -0.688612
O      15.44634     13.77967      2.00276         0.322611      0.482022      0.424665
O       0.05524     13.85921     14.93393        -1.846741      0.061651     -0.997018
O       3.94522      1.91242      6.61038         0.087619      0.746132      0.083305
O       3.96983     13.50753      6.90069        -0.687868      0.173278     -2.352627
O       0.04024      1.60339      6.36496        -0.667985      0.550399     -0.652899
O      15.54764     14.16434      6.51484         0.532889     -0.850818      0.136309
O       3.84935      2.18703     10.83556         1.109174      0.062515     -1.063186
O       3.78304     13.41321     10.99101         0.355665      0.676496     -0.521737
O      15.57773      1.88143     10.61543         2.181457      0.137829      0.143924
O       0.02215     13.61529     10.59501        -1.058629      0.584661     -0.061373
O       3.82010      6.04393      1.91885        -0.197995     -0.775273      1.908004
O       3.89654      5.59316     14.81760        -0.066192      0.909700      0.471254
O      15.46871      5.82857      2.19949         1.709789     -0.199650      0.545538
O      15.47846      5.92447     14.81956         1.633668      0.198321     -0.505776
O       3.99228      5.66794      6.35314        -0.740275      0.780420      0.608179
O       0.06979      5.59852      6.14119        -0.105422      1.253681     -0.295894
O       3.88854      5.72481     10.76059         0.407269      0.232139     -1.209177
O       0.21156      6.19807     11.17687        -1.319368     -0.843894     -2.135541
O       3.67714      9.61339      2.69576         0.591165      0.216481     -0.507953
O       3.73560      9.46023     14.99977         0.682421      1.847920     -1.298800
O      15.45484      9.95760      2.39985        -0.877706     -0.342601     -0.512128
O      15.58173      9.90624     14.80775        -1.409805      0.059057      0.041487
O       3.82832      9.76961      6.33272        -0.360311     -0.244738     -0.016459
O      15.49282      9.70458      6.47393         1.449544      0.079181      0.328745
O       3.97336      9.56281     10.67044        -1.055121      1.819441     -0.229277
O      15.47713      9.49810     10.72173         2.571289      0.667349     -0.037902
O       7.65182      1.69915      2.66766         0.823389      1.113822     -0.689122
O       7.76912      1.83972     14.37332         0.127806      1.586547      1.281539
O       7.91076     13.42871      2.22780        -0.499870      0.350998      1.129593
O       7.73432     13.74049     14.73310        -0.829263     -0.638717     -0.277439
O       7.80372      1.70760      6.19933        -0.229921      0.067904      0.904207
O       7.79712     13.87312      6.28456        -0.546622     -1.283190      1.185153
O       7.90937      1.95355     10.47214        -0.623308      0.157314      0.223187
O       7.91613     13.89817     10.71917        -1.738920     -0.790487     -1.385175
O       7.92916      5.61553      2.05403        -2.929904      0.929589      0.851369
O       7.76170      5.98364     14.86736         1.484241     -0.457894      0.538120
O       7.71514      6.05005      6.47848         5.563481      0.562129     -0.127622
O       7.78007      5.76897     10.62908         0.386103      0.169700     -0.118643
O       7.60069      9.72431      2.38535         0.342651      0.416764     -0.490792
O       7.62174      9.86514     14.58180         0.060754     -0.308777      1.031926
O       7.66731      9.60842      6.29515         1.982557      0.204854      0.508602
O       7.73106      9.72265     10.39485         0.890639     -0.166170      0.252354
O      11.51213      2.06425      2.65025         1.809382     -0.843035     -0.720438
O      11.44653      1.74350     14.76207         3.840157     -0.014868      0.118733
O      11.57589     13.35043      1.97141        -0.248504      2.307297      0.436392
O      11.62049     13.81305     14.59053        -0.795949     -0.251006      1.051508
O      11.73137      1.61881      6.36537        -0.953752      2.116826     -0.240316
O      11.66172     13.75720      6.56271         0.494639     -1.062223     -0.943404
O      11.75311      1.93613     10.02154         1.698201      0.522680      1.784935
O      11.73269     13.51819     10.74595         1.764221      0.717600     -0.624219
O      11.55147      5.75451      2.12259         0.420995      0.051325     -0.166664
O      11.71072      6.10791     14.95402        -0.766643     -0.263726      0.311516
O      11.75794      6.01321      6.40772        -1.868864     -0.526878      0.201222
O      11.61997      6.19757     10.29203         0.818055     -1.428689      0.538495
O      11.61843      9.80537      2.25039         0.308944      0.474758      0.096654
O      11.55733      9.84686     14.87321        -1.203762      0.185036     -0.292989
O      11.72823     10.05630      6.37055        -0.615908     -0.225208      0.068142
O      11.75594      9.59660     10.70608        -2.246012      0.580432     -0.503542
O       2.06736      3.80895      2.32716        -1.030607      1.338037     -0.542279
O       1.77338      3.94417     14.78654         0.200553     -0.679806     -0.709052
O       1.95185     15.59294      2.13152        -0.768720      0.449519      0.190211
O       2.05881     15.58992     14.61672        -0.453755      2.126846      0.035153
O      13.50123      3.92904      2.09476         0.558084     -0.701138      0.534273
O      13.59104      3.99676     14.82092        -0.878957     -0.001900     -0.120518
O      13.32850      0.06354      1.99954        -0.236957      1.717933      0.969511
O      13.59628      0.22168     14.68100         0.008004     -1.285550      0.195009
O       2.16953      3.91828      6.16389        -0.731419     -1.650740      0.881816
O       2.28880      0.08372      6.21995         0.164811     -2.119780      1.534683
O      13.74544      3.88623      6.02853        -1.051640     -0.367566      0.752008
O      13.40328      0.06783      6.63955         1.138205     -1.160057     -0.020593
O       1.78764      4.02774     10.56756        -0.440969     -0.602475      0.218758
O       2.19070      0.32975     10.63202        -0.432763     -6.131346     -0.781302
O      13.81993      3.89154     10.51969        -0.518759      1.508402      1.363639
O      13.70252      0.06320     10.86206        -0.215299     -1.980096     -0.899553
O       1.65134      7.81257      1.83761        -0.036114     -1.300388      1.617255
O       1.64483      7.78769     14.90915         0.503080      0.448250     -0.011322
O      13.38185      7.80507      2.23136         0.603107      0.982321     -0.114394
O      13.28560      8.04104     14.61900         1.552340     -3.309332      0.539251
O       1.88768      7.64801      6.02691         0.086682      1.775199      1.042657
O      13.65674      7.93560      6.48978         0.055416     -0.645012     -0.591069
O       2.22573      7.74661     10.57559        -0.644177      1.776270     -0.176595
O      13.44640      7.75295     10.82125         1.513867      0.957750      0.252504
O       1.75619     11.74335      2.16027        -0.041834      0.660133      0.598331
O       1.96820     11.75273     14.41633        -0.210848     -1.264330      0.575201
O      13.53412     12.05883      2.36500         0.657688     -4.356868      0.141627
O      13.60046     11.88967     14.92265        -0.235665     -0.061597      0.086679
O       1.72944     11.67827      6.75118         0.306863      0.475023     -0.294129
O      13.89568     12.01222      6.26835        -0.479139     -0.583553      0.375090
O       1.82143     11.73812     10.50984         0.009301     -1.824193      0.055452
O      13.56724     11.72242     10.71951         0.836454      1.908167      0.077975
O       5.76576      3.75789      2.25819         0.753216      1.481350     -0.012504
O       5.91384      3.83713     14.91954         0.403744      1.304538      0.248067
O       5.76756     15.46708      2.56474         0.368342     -0.076314     -0.951689
O       5.74490      0.10269     15.00259        -0.325577     -2.153060      0.074858
O       6.17967      3.99567      6.27178        -0.578880     -3.986904      0.931179
O       5.94189     15.40643      6.38865        -1.426860      1.891411      0.843989
O       5.93049      3.97359     10.38914         0.145489     -1.402843      0.792809
O       5.85972      0.04612     10.79597        -0.850381     -0.179338     -1.753065
O       5.72964      7.62603      2.45434         1.111776      0.476786     -1.335548
O       5.65302      7.72653     14.98534         1.529187      1.323753     -0.203962
O       5.77744      7.65361      6.57206        -0.143087      2.127808     -0.758103
O       5.88969      7.65265     10.59195         0.031626      1.550812     -0.416867
O       5.34349     11.72212      2.51218         1.997968     -1.146869     -0.768509
O       5.58668     11.73741     14.56007         0.098715     -0.888719      0.027314
O       5.85284     11.59694      6.14547         0.147364     -1.311172      0.605346
O       6.06996     11.66934     10.44452        -0.934290     -0.213845      1.010415
O       9.67140      3.83638      2.69683        -0.432066      0.576593     -0.580742
O       9.90640      3.98075     14.56028        -0.400129      0.032313      1.123324
O       9.69864      0.05892      2.21345         0.480450     -1.700592      0.145699
O       9.40550      0.08694     14.30163         1.889272     -1.183569      1.186678
O       9.76620      3.88447      6.15532        -0.387362      0.392467      0.778267
O       9.78274     15.50966      6.87388        -0.526749      0.909888     -1.062185
O       9.99598      4.04701     10.52002         0.036558     -0.191012      0.438002
O      10.04068      0.06082     10.43850        -0.464281     -2.569189      0.402628
O       9.84129      7.94514      2.31512        -0.943293     -1.048390     -0.101885
O       9.59842      7.91313     14.84379         0.081071      0.633984      0.212781
O       9.80325      7.80931      6.58531         0.171967      0.554673     -1.138300
O       9.61886      7.83069     10.39118        -0.003705     -0.157672      0.728300
O       9.82801     11.75103      2.17269        -1.403957     -1.198914      0.478598
O       9.60382     11.71647     14.75353         0.105188      1.053719     -0.614618
O       9.38804     11.92049      6.18189         1.517593     -2.320296      0.712271
O       9.68891     11.71902     10.47397        -0.130784     -1.209119     -0.721685
