  # total energy = -7862.05359612 
CRSYTAL
PRIMVEC
    15.6080000000000005    0.0000000000000000    0.0000000000000000
     0.0000000000000000   15.6080000000000005    0.0000000000000000
     0.0000000000000000    0.0000000000000000   16.6239999999999988
PRESSURE
1.29863 1.15712 1.47963 -0.380379 -0.227037 0.014864
PRIMCOORD
320 1
Pb       3.95002      3.90234      4.15776        -0.430064      0.107152     -0.674903
Pb       3.92105      3.83252     16.60045         0.067924      0.140369      0.180185
Pb       3.96847     15.60029      4.12300        -0.982757     -0.027665     -0.130373
Pb       3.90158      0.02902      0.03775        -0.733925      0.383637      0.699938
Pb       0.04500      3.87092      4.14507         0.163796      0.552869     -0.177684
Pb       0.00156      3.88083     16.61868        -0.303306     -0.405565      0.788843
Pb      15.56353      0.00558      4.12660         0.352234     -0.135897     -0.171483
Pb      15.60172      0.00458     16.59160        -0.071320      0.290182      0.938577
Pb       3.91603      3.85225      8.25984        -0.452391      0.304277     -0.105063
Pb       3.89403      0.00053      8.37858         0.003840     -0.542702     -0.405805
Pb      15.58640      3.84568      8.29920         0.052866     -0.197804     -0.001404
Pb      15.52852     15.57638      8.25631        -0.122818      0.392222     -0.192374
Pb       3.84230      3.86562     12.39702        -0.247297      0.473495      0.534077
Pb       3.86737      0.06395     12.41604         0.178706     -0.433717      0.800968
Pb       0.02475      3.89487     12.42592         0.480865     -0.675074      0.530187
Pb      15.50560     15.52384     12.33077         0.579557      0.683245      0.404250
Pb       3.89006      7.88414      4.13187         0.132955     -0.586763     -0.108911
Pb       3.91751      7.82146     16.59349         0.039300     -0.149723      0.069193
Pb       0.01873      7.76807      4.12938        -0.485758     -0.314753      0.241012
Pb       0.00198      7.86468     16.57125        -0.734263     -0.002132     -0.396175
Pb       3.93409      7.81231      8.35584         0.756456      0.562456      0.982877
Pb       0.00128      7.78883      8.34342        -0.333982      0.096155     -0.688962
Pb       3.86753      7.73287     12.50634         0.059320      0.317127     -0.704677
Pb      15.59232      7.75462     12.43317        -0.389572     -0.694838      1.293718
Pb       3.84624     11.74932      4.22948         0.484485     -0.187040     -0.258189
Pb       3.80143     11.72209      0.04003         0.344864     -0.398539     -0.126456
Pb       0.02882     11.66792      4.11470        -0.128437      0.173769      0.985025
Pb      15.55875     11.66560     16.56001        -0.611694      0.415735     -0.432270
Pb       3.87050     11.64157      8.24779        -0.432928      0.221659      1.623392
Pb      15.56771     11.67238      8.25357        -0.012508     -0.323113      0.286063
Pb       4.01142     11.73623     12.42864        -0.360266     -0.872893      0.446000
Pb      15.53914     11.68937     12.44470        -0.740710      1.437686      0.839798
Pb       7.86959      3.89298      4.01490        -0.082556      0.397412      0.827990
Pb       7.80869      3.90868     16.54496        -0.737495     -0.123425      1.083023
Pb       7.89903     15.59275      4.10534        -0.050556     -0.709965      1.165448
Pb       7.73472     15.53188     16.57271         0.884348     -0.525826      0.365952
Pb       7.70575      3.92310      8.17553         0.997733     -0.000678      1.511853
Pb       7.76383     15.59896      8.29514        -0.017936      0.222921      0.598596
Pb       7.80162      3.89641     12.42273         0.415108     -0.405933      0.636414
Pb       7.88259      0.06917     12.47720        -0.540989     -1.889664      1.150190
Pb       7.74655      7.80921      4.11469        -0.668435     -0.444336      0.349287
Pb       7.74173      7.81458      0.03111         0.735690     -0.496143     -0.644173
Pb       7.76766      7.83954      8.27993        -0.680512     -0.037050      0.078906
Pb       7.77472      7.85644     12.44159        -0.354704     -0.568933      0.202812
Pb       7.76434     11.71478      4.09234        -0.095961      0.184325      0.993961
Pb       7.82374     11.79990     16.59006         0.319365      0.118509     -0.661769
Pb       7.73850     11.63371      8.19659         0.550931     -0.072506      0.669811
Pb       7.80664     11.61651     12.49892         0.293046      0.969236     -0.214896
Pb      11.60294      3.87925      4.08368        -0.083964     -1.276836      0.720693
Pb      11.70853      3.84684     16.57393         0.302408     -0.423103      0.570339
Pb      11.67681     15.56515      4.16702         0.277849     -1.066814     -0.139475
Pb      11.75243     15.59663      0.04019         0.110030     -0.165332     -0.339776
Pb      11.63762      3.93250      8.34262         0.300814      0.102823      0.305247
Pb      11.65784      0.03438      8.24305         0.527423     -0.431981     -0.180941
Pb      11.65455      3.79727     12.41176        -0.437662     -0.194624      0.071420
Pb      11.65710     15.50897     12.40653        -0.507295      0.468336      0.749885
Pb      11.55603      7.72905      4.14232         1.112446      0.276431      0.191911
Pb      11.75062      7.81037     16.58069        -0.269226      0.724526      0.532896
Pb      11.73620      7.73106      8.40071        -0.052041      0.798193     -0.728061
Pb      11.65855      7.76962     12.46635         0.441551      0.128533      1.185148
Pb      11.61317     11.62471      4.04241         0.240036      0.757907      1.755307
Pb      11.73837     11.61755     16.51277        -0.421130      0.256013      0.253932
Pb      11.59419     11.69204      8.27478        -0.343335     -0.410154     -0.167696
Pb      11.71531     11.65708     12.42279        -0.512693      0.050232     -0.027189
Ti       2.01176      1.95097      2.19478        -0.988844     -0.526400     -1.054949
Ti       1.92482      1.93061     14.73575        -0.543964      0.822883     -0.144820
Ti       1.86906     13.63161      2.21493         1.552267      1.163438      0.199698
Ti       2.07617     13.84490     14.53455        -3.934103     -1.618562     -0.350084
Ti      13.71345      2.06637      2.23330        -0.360128     -1.571131     -0.972408
Ti      13.61468      1.90161     14.72364         0.843604      0.685842     -0.183094
Ti      13.70223     13.63482      2.20310        -0.940244      0.395784     -0.887777
Ti      13.75167     13.74732     14.51659        -1.115006     -1.998676      1.114520
Ti       1.94448      1.92655      6.42974        -1.288859      0.537399     -0.227427
Ti       2.03025     13.64082      6.46835        -2.131410     -0.494209     -0.727935
Ti      13.51511      1.99758      6.24415         1.531496     -1.592441      0.281281
Ti      13.64709     13.61413      6.46245        -1.181084     -0.775867     -1.633671
Ti       2.05620      1.93451     10.38944        -4.080475      0.285599      0.718741
Ti       1.87914     13.59383     10.52411         0.089514      0.523773      0.318293
Ti      13.74080      1.97810     10.53011        -0.357763     -0.706997      0.186849
Ti      13.50800     13.73437     10.48886         0.583782     -1.888741      0.488254
Ti       1.97673      5.87419      2.10835        -0.041673     -1.182426      1.132730
Ti       1.89986      5.88552     14.86300        -0.055339     -1.162629     -1.681990
Ti      13.54527      5.84530      2.22509         1.375988      0.476706      0.450167
Ti      13.64221      5.80952     14.73892         0.403270      0.364241     -0.012259
Ti       2.07355      5.91215      6.52274        -1.207512     -1.154917     -1.192478
Ti      13.64370      5.75949      6.30218        -0.019711      0.570503      1.106144
Ti       1.90073      5.93054     10.49393         0.812474     -0.583137     -0.303858
Ti      13.55302      5.87964     10.55490         1.491319     -0.789876      1.621624
Ti       1.95909      9.76054      2.25088         0.574046     -0.401252     -0.412796
Ti       2.03401      9.90651     14.70978        -0.270479     -1.029426     -0.412560
Ti      13.60731      9.89621      2.21882        -0.188326     -2.370270     -0.064545
Ti      13.61681      9.72934     14.61107        -0.431096     -0.337485      0.544114
Ti       1.95387      9.69984      6.47386        -0.840804      1.270564      1.214054
Ti      13.65636      9.63770      6.33377        -1.302250      0.724258      1.169091
Ti       1.68615      9.86562     10.77634         3.252558     -1.406957     -3.008456
Ti      13.54824      9.70161     10.54828        -0.858607      1.372546      0.537201
Ti       6.05069      1.81183      2.31115        -2.340623      1.818939     -1.642637
Ti       5.90921      1.75682     14.82191        -0.894734      2.227745     -2.094638
Ti       5.79984     13.71540      2.25710        -0.152173     -2.022235     -0.524282
Ti       5.71364     13.59995     14.83747         3.124762     -0.739896     -1.916024
Ti       5.79150      1.87077      6.27017         1.003379      1.197727      0.659744
Ti       5.79483     13.65805      6.46878         1.875058     -0.753558     -1.739611
Ti       5.62112      1.87631     10.42653         4.465152      0.683768      1.797756
Ti       5.75997     13.55931     10.67503         1.561239      0.382868     -1.183889
Ti       5.90076      5.75793      2.20288        -0.957268      0.342854     -0.731214
Ti       5.77367      5.80631     14.69161         1.591491     -0.198881     -0.186807
Ti       5.85958      5.76050      6.39279         1.444943      1.783897      0.390517
Ti       5.92199      5.78778     10.54783         0.039426      1.096260     -0.201537
Ti       5.90749      9.83798      2.02897        -1.458302     -0.498997      3.398655
Ti       5.91492      9.70280     14.68733        -0.993560      0.767185     -0.475515
Ti       5.71993      9.84789      6.31625         1.808775     -1.510772      0.936795
Ti       5.76857      9.65812     10.55656        -0.530958      0.042571      0.491594
Ti       9.77198      1.76424      2.10715         0.282139      3.203670     -0.102808
Ti       9.65708      1.89413     14.63100         1.427828      0.062911      1.414698
Ti       9.73215     13.48146      2.16683         0.001568      2.394510      0.104149
Ti       9.76794     13.69900     14.73460        -0.453594     -1.032637     -1.570594
Ti       9.73522      1.98414      6.36933        -1.174506      0.545603      0.046919
Ti       9.67556     13.74750      6.43902         0.924767     -3.183161     -0.854587
Ti       9.71754      1.90830     10.50013         0.045046     -0.053870      1.532955
Ti       9.69328     13.55228     10.52415        -1.291573     -0.047487      0.813312
Ti       9.76980      5.77360      2.09128        -0.432437     -0.126036      0.025209
Ti       9.73614      5.83395     14.82904        -0.543792      0.457341     -1.262494
Ti       9.88481      5.83501      6.23861        -1.337838      0.143316      1.887203
Ti       9.78521      5.93196     10.49806        -0.586263     -3.116456      1.067641
Ti       9.78564      9.62813      2.26311        -0.581008      1.522831     -1.253226
Ti       9.70155      9.72798     14.57843         1.149891     -0.139719      0.553530
Ti       9.71710      9.60328      6.43401         1.443213      1.671038     -0.373127
Ti       9.74075      9.67178     10.52460        -0.615500      1.222177     -0.120501
O       1.75592      1.56412      0.37287         1.408951      1.143040      1.491188
O       1.81650      1.95026     12.94854         0.666764      0.125896      0.304723
O       1.84919     13.99995      0.48501         0.521419     -1.411969     -0.489730
O       1.73171     13.83126     12.75889         1.153652     -0.503535      0.997881
O      13.44959      2.10216      0.46374         0.693836     -1.090513      0.275459
O      13.70735      1.79411     12.95671        -0.085277      0.484184      0.017839
O      13.67567     13.48338      0.42794        -0.061430      0.340776      0.636052
O      13.60898     13.70715     12.72051         0.171110     -0.422852      1.092702
O       1.99665      2.13741      4.67570        -0.118585     -0.929437     -0.961263
O       1.72647     13.42849      4.72289         0.956751      0.964883     -0.697816
O      13.55240      1.98342      4.45636         0.231123     -1.055053     -0.003251
O      13.45142     13.53116      4.57100         1.052095      0.582381      0.706725
O       1.79221      2.02431      8.62573         1.304733     -0.666498      0.248113
O       1.90474     13.50113      8.74215         0.329906      0.474241      0.030892
O      13.93225      1.80315      8.76529        -1.649025      0.079784      0.482308
O      13.58214     13.68726      8.70964        -0.262842      0.407351      0.134802
O       2.07243      5.53163      0.34958        -0.305398      2.411480      0.614788
O       1.94130      5.64926     13.00895         0.112518      0.316221      0.657291
O      13.61294      6.02706      0.46373         0.318800     -0.741936      0.683965
O      13.67705      6.06233     12.95530         0.200189     -1.405273      0.761523
O       2.12286      5.93791      4.76083        -0.614892     -0.696541      0.044685
O      13.73827      5.57679      4.57285        -0.255824      0.896195     -0.237162
O       1.75068      5.76107      8.69703         0.762428      0.752475      0.583309
O      13.54553      5.76131      8.84905         0.059982      0.333301     -0.826839
O       2.16107      9.72740      0.44723        -0.909893     -0.090075      0.671992
O       2.22068      9.84811     12.90566        -1.165829     -0.359536      0.168439
O      13.31613      9.75184      0.48444         1.626927     -0.158832     -0.163253
O      13.56537      9.60929     12.82571        -0.140188      0.918483      1.343474
O       1.91646      9.67403      4.75784         0.364673      0.706288     -1.863898
O      13.71635      9.72768      4.58387        -0.645304     -0.027475     -0.720124
O       1.78536      9.79481      8.80455        -0.542870      0.055845      1.198162
O      13.52103      9.71133      8.79575         1.049577     -0.620766     -0.106529
O       6.19119      1.74230      0.47384        -1.503935      0.125165      0.378550
O       5.68670      1.98439     13.05268         0.553392     -0.733221      0.184706
O       5.68932     13.69815      0.43738         0.236717     -0.086232      0.624899
O       5.76510     13.70693     13.05254        -0.396679     -0.297651     -0.839934
O       5.79554      2.00236      4.48113         0.001062     -0.334374      0.387320
O       5.93877     13.39867      4.65832        -0.900013      0.943556      0.129215
O       5.66923      2.06375      8.68820         0.149594     -0.810666     -0.013368
O       5.83428     13.62014      8.80259        -0.385322      0.399789      0.305967
O       5.78970      5.91888      0.41544         0.253713     -0.468382      0.469251
O       5.90323      6.12526     12.89944        -0.827474     -1.284701      0.786139
O       5.98312      5.79135      4.64557        -0.615282     -0.170970     -0.151026
O       6.06686      6.10278      8.77559        -0.800190     -1.666449      0.330134
O       5.90596      9.94937      0.30661        -0.186058     -1.158696     -0.208183
O       5.89355      9.77196     12.84473        -0.273389     -0.679580      1.426607
O       5.72527      9.85137      4.56421         0.013039     -0.284967      0.587490
O       5.84258      9.46172      8.81975         0.127554      1.100196     -0.915856
O       9.74900      1.76823      0.36072        -0.354133     -0.010583     -0.376825
O       9.73850      1.79153     12.88808         0.355357      0.823308      0.466873
O       9.59938     13.60965      0.36024         0.464388      0.000589      0.470521
O       9.56493     13.55091     12.94787         0.665263      0.463690      0.512897
O       9.68549      2.05825      4.59490        -0.339730     -0.325623      0.191202
O       9.72576     13.66918      4.64638        -0.123509      0.934898     -0.215893
O       9.65334      1.88044      8.72251         0.649807     -0.037810     -0.136522
O       9.67431     13.43072      8.72448        -0.360441      1.401288      0.377178
O       9.67184      6.08449      0.28435         0.237795     -0.824267      2.301509
O       9.69527      5.52209     13.04246         1.210529      0.925924     -0.158222
O       9.62734      5.74962      4.50046         0.559077      0.674342     -0.443455
O      10.03932      5.59413      8.80322        -0.582507      0.930459      0.275080
O       9.68233      9.85323      0.50161        -0.614152     -0.352687      0.273283
O       9.83116      9.61781     12.79092        -0.594977      0.169059      0.497675
O       9.79173      9.87018      4.63478        -0.219620     -1.224798     -0.613899
O       9.87545      9.70016      8.77713        -0.982713     -0.059766     -0.868360
O       3.82483      1.91890      2.39944         1.117101     -0.787006      0.390939
O       3.89696      1.77513     14.84591        -0.713837      0.415063      1.590531
O       3.90813     13.78801      2.50004         0.455573     -0.865084      0.643292
O       3.82508     13.60681     14.75180        -0.676493      0.236701      1.097599
O       0.06572      1.72144      2.45590        -1.222117      0.883805      0.705971
O      15.55300      2.04943     15.10728        -0.133445     -1.231012     -0.281580
O       0.05796     13.57639      2.46938        -1.165787     -0.431050      0.579975
O      15.56869     13.19705     14.77540        -0.617688      2.362983      0.128475
O       3.92939      1.95923      6.71535        -0.229007     -0.237028     -0.024393
O       3.93141     13.68624      6.69020        -0.847551      0.157123      0.203024
O      15.51525      1.83837      6.79651         0.592248      0.248760     -1.499783
O      15.58105     13.44915      6.80755        -1.097465      1.128136     -0.575091
O       3.87443      1.92283     10.75704        -0.872159      0.440041      0.270484
O       3.84849     13.51948     10.87229        -0.579508      0.798326     -0.104307
O       0.04634      1.91929     10.88978        -0.881764     -0.274096     -0.301361
O      15.49266     13.49643     10.86722         0.523081      0.532158     -0.829135
O       3.83882      5.79741      2.53913         0.026899      0.201362      0.033353
O       3.88875      5.66553     15.10246         0.336020      0.640268     -0.753225
O       0.05246      5.82821      2.64109        -0.422419     -0.085781     -0.499390
O      15.58927      5.75504     15.10875         0.222585      0.995636      0.097567
O       3.92867      5.92585      6.85913         0.608554     -0.941615     -0.363023
O      15.40918      5.75430      6.90155         1.454543      0.929964     -0.839157
O       3.79169      5.74974     10.81986         0.752786     -0.316377     -0.020590
O       0.09185      5.59659     10.86895        -1.170690      1.686596     -0.183008
O       3.85345      9.73051      2.64275         0.747856     -0.675723     -0.646605
O       3.93455      9.83037     15.10016        -0.476423     -0.637559     -0.269455
O      15.58688      9.86810      2.52987         0.393494     -0.726202     -0.478502
O      15.58277      9.64331     15.02526         0.197877      0.378234     -0.070850
O       3.92723      9.77188      6.96237        -0.825976     -0.336481     -1.417643
O      15.57112      9.71847      6.63720        -0.357035     -0.026262      0.542656
O       3.90772      9.82960     10.76470         0.165431     -0.027376      0.438307
O      15.45704      9.72566     11.17129         1.252742      0.044881     -1.510559
O       7.79144      2.03388      2.54028         1.156927     -0.546401      0.249876
O       7.85212      2.07504     15.00312        -0.804512     -0.895040     -0.327818
O       7.80526     13.76011      2.62210        -0.310784     -0.995935     -0.562137
O       7.68609     13.57299     14.98362         0.051026      0.255597      0.874287
O       7.74904      1.92818      6.99270        -0.420552      0.653888     -1.916314
O       7.68729     13.29047      6.64876         0.992202      2.174460      0.230486
O       7.88630      1.73834     11.14316        -0.981047      1.882109     -2.750814
O       7.65135     13.61049     11.01506         0.746172      0.148628     -0.696395
O       7.79724      5.64414      2.41540        -0.161471      1.497971     -0.020866
O       7.86754      6.04927     14.81048        -1.350082     -0.592635      1.269728
O       7.91149      5.62562      6.70317        -0.167029      1.207199     -0.443762
O       7.82297      5.72483     10.86762         0.423934      0.842915     -0.286062
O       7.65727      9.54609      2.63979         1.184726      0.853451     -0.908530
O       7.76056      9.61633     14.89494         0.153247      0.574910      0.105057
O       7.80174      9.79498      6.64900        -0.542555     -0.215607      0.046976
O       7.76576      9.65839     10.70569         0.576560     -0.175111      0.736770
O      11.55565      2.28084      2.24166         0.475762     -1.784997      1.279304
O      11.73178      2.03046     14.95216        -1.149473     -0.272868      0.180290
O      11.59523     13.64959      2.57597         0.581281      0.659209     -0.558656
O      11.74061     13.68400     14.87431        -0.787930     -0.134699      0.366974
O      11.56932      1.88359      6.49903         1.372807     -0.704244      0.880487
O      11.67295     13.62478      6.71604        -0.687620      2.130974      0.456869
O      11.67519      1.73677     10.94360         0.027641      1.022282     -0.908390
O      11.52123     13.57367     10.91757         1.447005      0.283621     -0.584277
O      11.69218      5.61195      2.75959        -0.705040      1.918952     -1.884891
O      11.86641      5.98889     15.21548        -1.996040     -1.490780     -1.361199
O      11.77291      5.97148      6.84079        -0.020153     -1.075575     -1.211829
O      11.78832      5.90731     11.01069        -1.892100     -0.598603     -0.433886
O      11.60306      9.82175      2.34745         0.792072     -0.172938      1.495241
O      11.67405      9.70426     14.94904        -0.590499      0.532524     -0.257548
O      11.57784      9.55630      6.80031         1.117426      0.353464     -0.584079
O      11.64943      9.81853     10.72726         0.583643     -1.306393      0.992633
O       1.89063      3.88600      2.35269         0.157538     -0.503275      0.745865
O       1.81408      3.82694     15.29117         1.417480     -0.853091     -1.567630
O       2.07463     15.51317      2.70533        -0.956895      0.257577      0.480492
O       1.75940     15.59370     15.05484         0.604259     -0.778954     -1.399304
O      13.51432      3.77996      2.68793         1.672108      1.794259     -0.836550
O      13.73526      3.82914     15.24827        -1.068319      1.340072     -1.737958
O      13.76384     15.49067      2.26461        -0.877713      0.926456      1.160643
O      13.58843     15.50371     15.11813         0.641620      0.976628     -0.641707
O       1.93887      3.87305      6.64313         0.201886      0.568984      0.786189
O       1.86130     15.58361      6.68213         0.695066     -0.265247      0.141103
O      13.71472      3.75588      6.53709        -0.869134      1.279344      0.730177
O      13.58919     15.56864      6.56895        -0.037950      0.119372      0.382221
O       1.91012      3.75339     10.76113         0.724099      0.668227      0.296991
O       1.95341     15.57974     10.81245         0.247466     -0.106637     -0.859482
O      13.50416      3.82651     10.78358         0.345468      0.428329      0.365636
O      13.51163     15.55555     10.91696         0.727553      0.058332     -1.078484
O       1.83849      7.79026      2.79553         0.906544      0.399576     -1.881771
O       1.92974      7.78063     14.97074         0.397590     -0.274935      0.500362
O      13.49082      7.66994      2.60177         0.179251      0.749094      0.301658
O      13.55519      7.83834     15.06565         1.358960      0.148383     -0.040154
O       2.02258      7.84440      6.58617        -0.613406     -1.097134      1.433152
O      13.55823      7.75501      6.78253         0.985908      0.272986     -0.544850
O       2.14459      7.94507     10.78013        -1.542440     -1.993580      0.426400
O      13.66299      7.77636     11.16547         0.194375     -0.198501     -2.535589
O       2.23699     11.63152      2.60390        -1.686307      1.076187     -0.709640
O       1.75943     11.67944     15.00271         1.892012      0.459874      0.108741
O      13.62074     11.65646      2.44309        -0.023647      1.114363      0.495165
O      13.57929     11.63298     15.24436         0.579601     -0.418090     -2.007084
O       1.84088     11.73843      6.64824         1.233214     -1.185697      0.813125
O      13.27452     11.65476      6.75912         2.200815     -0.482211     -0.757193
O       2.01296     11.65613     10.89117        -1.107235      1.098631      0.218055
O      13.48360     11.65817     10.84473         0.766174      0.186326      0.120097
O       5.65985      3.75757      2.45951         0.735769      0.687964      0.130738
O       5.99080      3.84461     15.08948        -1.019277      1.063349     -0.375059
O       5.90574     15.49364      2.70339        -0.169389      1.847116     -0.204177
O       5.79557     15.51597     15.10994         0.246199      0.656526     -0.061027
O       5.94822      3.88895      6.72770        -1.575112     -0.091861     -0.428135
O       5.87218      0.05689      6.54903         0.017715     -1.372922      0.604495
O       6.00216      3.84626     10.97147        -1.656915     -0.266086     -1.133156
O       5.65428      0.05269     10.87624         0.194226     -0.334404     -0.657274
O       5.79548      7.63606      2.64859         0.334288      0.698703     -0.585660
O       5.82939      7.74064     15.16718        -0.758768      1.000014     -0.643581
O       5.90920      7.84134      6.84418        -0.200587     -0.464823     -1.609071
O       5.74187      7.70076     10.83257         0.075559      0.303086      0.709005
O       5.81096     11.63866      2.49357         0.198242      0.798772     -0.349606
O       5.71794     11.68344     15.14692         0.413425     -0.189996     -0.635564
O       5.80491     11.71234      6.72171        -0.908827     -1.045198      0.336711
O       5.82065     11.68683     10.99203         0.342602      0.098693     -0.680206
O       9.60744      3.97880      2.47670         0.697178     -0.665464     -0.640531
O       9.66449      3.98424     15.34882         1.211198     -0.785905     -1.713043
O       9.59022      0.06889      2.63062         1.279593     -1.788268     -0.411435
O       9.57040      0.03321     15.03508         0.742328     -0.330356     -0.443426
O      10.07948      4.03791      6.71651        -1.348975     -2.103284     -0.605973
O       9.44890      0.07592      6.67782         1.033105     -0.796080     -0.066225
O       9.74032      3.80294     10.92379         0.663447     -0.023675     -0.415678
O       9.71400     15.51017     11.06631         0.015224     -0.613035     -1.813785
O       9.91461      7.79554      2.55278        -1.068658     -1.170010     -0.088145
O       9.70699      7.87299     15.08689         0.418947      0.237561     -0.667006
O       9.83565      7.71699      6.79917        -1.014941     -0.375777     -0.880589
O       9.74332      7.68824     10.86579         0.091764      1.042433     -0.222185
O       9.78679     11.76996      2.57818        -1.220861     -2.092836     -0.258413
O       9.59762     11.75347     14.83981         0.269577     -1.650588      0.744931
O       9.91642     11.82182      6.55453        -0.882500     -1.292090      0.847762
O       9.73865     11.58025     10.88957        -0.571766      0.912762      0.112750
