  # total energy = -7836.08994907 
CRSYTAL
PRIMVEC
    15.6080000000000005    0.0000000000000000    0.0000000000000000
     0.0000000000000000   15.6080000000000005    0.0000000000000000
     0.0000000000000000    0.0000000000000000   16.6239999999999988
PRESSURE
5.25482 5.85163 5.02218 -0.108132 -0.184202 -0.259112
PRIMCOORD
320 1
Pb       4.08459      3.95087      4.20349        -0.308560      0.283698      0.579086
Pb       4.01050      3.72896     16.61283         0.216796      1.301567     -0.264295
Pb       4.12431      0.02284      4.11619        -1.615062      0.526043      1.746342
Pb       3.92044      0.14329      0.20049         0.211627     -1.877291      0.370843
Pb       0.19523      3.86810      4.17921         0.262227      0.708193     -0.173636
Pb       0.03660      3.86628      0.06731        -0.255613      0.726765      0.637155
Pb      15.51974      0.05370      4.12400         0.310167     -0.753054      0.940998
Pb       0.01586      0.05921     16.61171        -0.157142     -1.225039      1.104910
Pb       3.97285      3.79438      8.20241        -0.500159     -0.342637      1.174101
Pb       3.91611      0.02369      8.56944        -0.307325     -0.743180     -0.637161
Pb      15.58182      3.76654      8.32454        -0.030264      1.641384     -1.044573
Pb      15.38996     15.55892      8.18129         0.149383     -0.576453     -0.649506
Pb       3.74593      3.84475     12.31950         0.329030     -0.071256      0.462669
Pb       3.83824      0.23416     12.38975        -0.038042     -0.479498      0.087393
Pb       0.14201      3.90391     12.41087         0.523792      0.000534      0.547932
Pb      15.34375     15.40617     12.10169         0.904269      1.079994      1.188338
Pb       3.91287      8.08111      4.14113         0.244938     -1.735409      0.359049
Pb       3.99367      7.89800     16.59311        -1.395608     -0.540553      1.622467
Pb       0.09039      7.72267      4.14097         0.010948      0.039774     -0.344294
Pb       0.02888      8.03971     16.50736         0.995945     -0.382781      1.697633
Pb       4.07219      7.88652      8.53913        -0.457971     -1.144035     -0.625570
Pb       0.03041      7.79872      8.44849        -1.120436     -0.710259     -0.132441
Pb       3.83913      7.62645     12.63488         0.354944     -0.374303      0.742996
Pb      15.58979      7.66386     12.46320        -0.221366     -0.056904      0.535021
Pb       3.77525     11.88243      4.44435        -1.050545      0.386284     -0.510258
Pb       3.63104     11.78761      0.18162         0.068059      0.381053     -0.251025
Pb       0.13179     11.63213      4.11910        -0.167008      0.402393      0.309909
Pb      15.47406     11.63356     16.46297         0.743926      0.293335      0.289304
Pb       3.82777     11.55711      8.22863        -0.626547      1.695388      3.490774
Pb      15.51559     11.62948      8.19524        -0.493251      0.577241      1.100092
Pb       4.27598     11.82078     12.42811        -2.340374     -0.562052      1.727417
Pb      15.40953     11.74260     12.47819         0.059074      0.049095     -0.218975
Pb       8.05243      3.93241      3.79370        -1.466677      0.753820      1.435077
Pb       7.83830      3.96002     16.46378        -0.510481     -0.120420      1.249856
Pb       8.15270     15.57963      4.09942        -0.838483      0.288332      1.056523
Pb       7.65706     15.38781     16.53638         1.051378      0.518159      1.919352
Pb       7.56246      4.00991      7.98753         0.852368     -1.373768      2.607077
Pb       7.71867      0.02225      8.33285         0.538710      0.061359     -0.143499
Pb       7.85308      3.91455     12.40423        -0.040603     -0.491340      0.187097
Pb       8.08243      0.21264     12.58868        -1.464420     -1.394406     -0.433774
Pb       7.64060      7.84659      4.09574        -0.089487     -0.632896     -0.525031
Pb       7.66758      7.86680      0.13717         0.399056     -0.010857      0.331805
Pb       7.70766      7.95976      8.26938         0.748753     -0.141003      0.414881
Pb       7.74355      7.99414     12.45654        -0.028343     -0.984400      0.910081
Pb       7.72014     11.78432      4.04641         0.138508     -0.645458      0.556632
Pb       7.91880     12.03739     16.56036        -0.740311     -4.220366      2.206222
Pb       7.65609     11.51513      8.02851         0.594758      0.459967      2.188873
Pb       7.86518     11.49384     12.62345        -0.386378      0.746701     -0.097717
Pb      11.42007      3.83758      4.00148         0.937989     -0.130882     -0.039232
Pb      11.76673      3.75812     16.54506        -0.135516      1.164930      0.936680
Pb      11.66585     15.47604      4.24970         0.341753     -0.679402      0.081407
Pb      11.90261     15.60770      0.17800         0.690686     -0.449256      0.389417
Pb      11.55504      4.02903      8.47773         2.416425     -2.306684     -0.362221
Pb      11.61147      0.14519      8.14962         0.605590      1.960249      2.718795
Pb      11.57473      3.60087     12.35853         0.992756      0.219087      1.793323
Pb      11.57754     15.35543     12.35431        -0.059323      1.304480     -0.484848
Pb      11.30933      7.61595      4.18207         1.413340      0.711331     -0.156765
Pb      11.88199      7.88354     16.56132        -0.897074     -0.981472      1.205506
Pb      11.84709      7.63763      8.62644         0.103855      0.240780     -0.826303
Pb      11.60864      7.73817     12.56335        -0.477560     -0.294060      0.044257
Pb      11.46275     11.51687      3.91649         0.746597      1.382240      2.143643
Pb      11.83877     11.47526     16.33804        -0.309858      1.467912      1.572885
Pb      11.38585     11.68820      8.24509         1.035442     -0.210434      0.719269
Pb      11.76033     11.59849     12.38768        -1.463267      0.564670      0.794058
Ti       2.12750      1.93219      2.10392         0.863612     -0.641119      6.878938
Ti       1.85551      1.96214     14.80454         0.722898     -1.377066     -1.405120
Ti       1.90935     13.78730      2.25630        -0.259406     -0.742271      0.943855
Ti       1.92096     13.99684     14.24386         0.482643     -4.875007      3.515794
Ti      13.77215      2.18157      2.21635        -1.055431     -0.820561      0.571684
Ti      13.66313      1.94110     14.78526        -0.038639     -0.216353     -2.076670
Ti      13.71348     13.70184      2.11600        -0.322488     -0.106044      0.801259
Ti      13.78739     13.76520     14.36850        -1.332168     -0.153021      2.830723
Ti       1.82959      2.00030      6.47025         2.385717     -0.818868     -3.001465
Ti       1.98662     13.66763      6.60437         0.309022      1.596272     -1.270510
Ti      13.48739      1.93764      6.01335         0.504027     -1.243743      0.519078
Ti      13.49005     13.47838      6.44754        -0.316747      1.197645     -0.946309
Ti       1.82576      1.97408     10.21601         2.530419     -0.957083      0.629375
Ti       1.79925     13.60619     10.63882         1.639077      1.768024     -2.432078
Ti      13.84528      1.99476     10.55426        -3.618006     -0.795236      0.080666
Ti      13.35698     13.67566     10.41797         1.996704      0.605351     -1.201333
Ti       2.06472      5.82949      2.07299        -1.234143      0.532043      0.858992
Ti       1.88297      5.87095     15.01649         2.165488     -0.192256     -0.209605
Ti      13.55999      5.95555      2.35037         0.578443      0.727274      0.863688
Ti      13.67856      5.84545     14.89957        -0.120223      1.190439      0.473618
Ti       2.18310      5.91472      6.70963         0.113974     -1.358917     -1.332636
Ti      13.72310      5.71413      6.27967         1.385741      0.410076     -0.144876
Ti       1.97410      5.98302     10.44559         0.418000     -4.385364     -1.900419
Ti      13.56470      5.85338     10.77118         0.349152     -0.623840     -1.936329
Ti       2.08934      9.76159      2.32586        -1.138356      0.451425     -0.114862
Ti       2.18804     10.05997     14.68599        -0.679584      0.011452      0.124703
Ti      13.56140      9.94977      2.27259         1.894445     -0.897238      1.314642
Ti      13.55708      9.67490     14.57564         1.879816     -0.116918      1.361865
Ti       1.82749      9.72612      6.67822         0.238397     -1.461874     -3.665707
Ti      13.54126      9.54935      6.34082         0.568575      0.070963     -2.213066
Ti       1.70121      9.99325     10.89859         1.056397     -0.733582      0.541512
Ti      13.37009      9.81240     10.61028         2.391798     -2.560378     -1.337907
Ti       6.16892      1.84293      2.29753        -1.203992      1.235198      1.466573
Ti       5.94942      1.71288     14.87186        -2.449519      0.929752     -0.762922
Ti       5.78238     13.66168      2.28423        -0.035238      0.720031     -0.527341
Ti       5.79058     13.46894     14.88241        -3.504580      1.398028     -2.460716
Ti       5.81372      1.91635      6.17856        -2.134528     -0.561790      1.678589
Ti       5.92853     13.60682      6.46744        -1.850797      0.894450     -0.025256
Ti       5.73675      1.88696     10.42235        -0.224029     -0.058607     -0.436421
Ti       5.81327     13.49384     10.77793        -0.111124      2.047255     -1.759403
Ti       5.89480      5.68269      2.11780         0.064428      2.041479      1.686342
Ti       5.84593      5.77929     14.74534        -2.114735      1.281066      0.162407
Ti       6.12918      5.88877      6.45326        -2.443696     -0.078397     -3.602613
Ti       6.07407      5.79906     10.60563        -2.169744     -1.033708     -0.249455
Ti       5.88920      9.96789      2.01151         0.652548     -1.869845     -0.324053
Ti       5.95407      9.72240     14.77360        -2.502639      0.609734     -0.344757
Ti       5.78168      9.83882      6.31972        -0.193909     -2.536228      1.163371
Ti       5.59482      9.51444     10.65666         2.902721      2.008638     -0.532005
Ti       9.87465      1.75595      1.86806        -1.131752     -0.204008      1.537889
Ti       9.71536      1.85722     14.76741         0.176222      0.769032     -0.406477
Ti       9.75331     13.45620      2.08928         0.349159      1.033974      1.461082
Ti       9.80983     13.72036     14.70503        -0.940047     -1.104658     -0.179413
Ti       9.58373      2.12990      6.40400        -0.626660     -5.321092      0.753428
Ti       9.69287     13.61808      6.45753        -1.277604      1.755915     -1.154456
Ti       9.72222      1.84949     10.58597         0.920853     -0.706343     -2.693458
Ti       9.42930     13.41491     10.60469         0.648505      1.748176     -1.607528
Ti       9.79385      5.67225      1.96308        -1.446837      2.103861      2.021409
Ti       9.71270      5.90870     14.92575         0.725533     -0.295507     -1.437260
Ti      10.02521      5.83636      6.18008        -1.889941     -0.073017     -0.660689
Ti       9.83561      5.78119     10.61342        -0.431959      1.081703      0.128043
Ti       9.80351      9.57736      2.24157        -2.129014     -0.810133     -0.576317
Ti       9.76025      9.71019     14.54703        -1.445587     -1.161617     -1.219031
Ti       9.88870      9.58921      6.50188        -0.305491     -0.459293     -1.484985
Ti       9.64471      9.68630     10.53141        -0.164578     -0.875814     -1.336418
O       1.91935      1.29311      0.59935        -1.344900      0.157305     -4.180461
O       1.80656      2.07178     13.04847         0.102078      0.548394     -0.271651
O       1.89282     14.13834      0.49134         0.079163     -0.785138      0.831180
O       1.70230     14.02233     12.54642        -0.085068     -0.600439     -2.747428
O      13.37884      2.02661      0.39533         0.897637     -0.244341     -1.152919
O      13.81302      1.70378     12.98912        -0.516793      0.962341      0.770772
O      13.71291     13.33264      0.39903        -0.373142      0.796158     -1.917231
O      13.58779     13.65881     12.64691        -0.531475     -0.143537     -0.401287
O       2.06345      2.17827      4.56876        -0.365514     -0.177473      0.760064
O       1.69344     13.33094      4.67863         0.503186     -0.246296      1.144977
O      13.43948      1.72505      4.17864         0.057239      1.115820      0.681128
O      13.42878     13.53047      4.67777        -0.416329      0.310268     -0.651407
O       1.95498      1.95740      8.43023        -0.995314      0.101538      1.340535
O       1.92506     13.38054      8.42736        -1.068193      0.172927      2.829589
O      13.88186      1.62210      8.86838        -0.380197      1.700735     -1.036427
O      13.34219     13.90920      8.66488        -0.085047     -1.243691     -0.399136
O       2.21887      5.79099      0.32563        -0.571277     -0.211276      1.133348
O       1.96170      5.38227     13.33529        -0.749830      0.067591     -3.036814
O      13.65788      6.12818      0.61387        -0.337728     -0.300766     -1.576417
O      13.82705      5.98594     13.18516        -0.308221     -0.015096     -1.952673
O       2.26658      5.87391      4.95742        -0.687341     -0.047801     -1.235167
O      13.82255      5.48313      4.49242        -0.489428      1.682459      1.411245
O       1.66646      5.87226      8.66034         1.179833     -0.254183      3.040618
O      13.36105      5.77560      8.92091         0.081525      0.073246      1.208128
O       2.23840      9.72137      0.58845        -0.490033      0.740086     -1.441652
O       2.33315      9.91916     12.91593        -0.852000     -0.466903      0.207824
O      13.33296      9.75387      0.44045         0.834503      0.450589     -0.381371
O      13.37933      9.68329     12.89036         0.281859     -0.296782     -2.644781
O       2.03349      9.80963      4.60713        -0.299500     -0.199278      1.402063
O      13.59929      9.70588      4.41258        -0.032239      0.313020      2.029411
O       1.30271      9.91386      9.24355         1.357703     -0.452391     -3.091298
O      13.68008      9.42270      8.86540        -0.832892      1.402900      1.089668
O       6.30622      1.49855      0.62653        -0.863864      1.401142     -2.833591
O       5.56067      1.81910     13.19312         0.465924     -0.051475     -1.159115
O       5.51322     13.78779      0.51204         1.156909     -0.421200     -0.434360
O       5.54819     13.71473     12.98924         1.391284     -0.319596      0.437435
O       5.74853      2.05092      4.44323         0.586389      0.498709     -0.523009
O       5.79836     13.24359      4.75282         0.371002      0.462695     -1.262810
O       5.47352      1.95150      8.67370         1.813094     -0.597250      0.301039
O       5.70678     13.70753      9.02525         0.702975     -0.697286     -1.129101
O       5.78859      5.89965      0.41226        -0.116587     -0.031799     -1.457823
O       5.75271      6.16755     12.96990         0.514267     -1.131078     -0.989019
O       6.03204      5.62088      4.55973        -0.236896      0.442535      1.926460
O       6.25282      6.04510      8.83883        -0.551329     -0.353396      0.271823
O       5.97883      9.89465      0.19272         0.077214     -0.429416      2.210674
O       5.90029      9.58552     12.82794        -0.531748      0.252011     -0.614861
O       5.55096      9.98900      4.63157         0.643885     -0.149706     -1.029970
O       5.89361      9.35562      8.73435        -0.205793      0.761112      0.876750
O       9.65726      1.47070      0.14224         0.262345      0.866554      0.329888
O       9.80717      1.79036     12.81042        -0.899198      0.264341      0.574643
O       9.56337     13.54764      0.33625         1.305750      0.172784     -1.106931
O       9.41737     13.51248     13.01076         0.557209      0.100981     -0.703108
O       9.52046      2.17457      4.66049         0.910229     -0.732652     -1.080094
O       9.67641     13.97447      4.66210         0.770029     -2.439223     -0.199255
O       9.70372      1.77919      8.68417        -0.429176      0.601458      1.155661
O       9.39976     13.52155      8.79044         0.433515     -0.733372     -0.245868
O       9.61223      6.26088      0.37915         0.234355     -0.697370     -3.575645
O       9.97963      5.28553     13.23869        -1.936000      1.222711     -0.694656
O       9.63607      5.79605      4.29148         0.837913     -1.053443      2.092546
O      10.25498      5.61652      8.93348        -1.808731      1.331726     -1.773867
O       9.40642      9.89925      0.55931         1.479307     -1.055989     -1.695257
O       9.79515      9.48923     12.44760        -0.761229      0.946362      4.495167
O       9.82964      9.62054      4.55770         0.178657     -0.221854      0.738055
O       9.76122      9.63667      8.46227        -0.299846      0.625563      1.456376
O       4.04942      1.58714      2.21849        -1.622685      0.843622      0.130218
O       3.69366      1.61446     15.15736         0.900314      1.204545     -0.276987
O       3.97720     13.78719      2.71075        -0.191107     -0.074275     -0.254257
O       3.60127     13.70138     14.69130         2.264662      1.055776      0.454379
O      15.51145      1.70047      2.48904         1.367686      1.124020     -0.677987
O      15.45854      1.88315     15.22981         0.638021      1.674061     -0.049425
O      15.53487     13.35737      2.49792         0.684272      1.526208     -0.207610
O      15.47481     13.17821     14.41048         0.128711      1.899547      1.302431
O       3.93290      1.89271      6.66619        -0.185538     -0.233336     -0.729683
O       3.83595     13.76122      6.70780         1.164148     -1.434928     -0.511367
O      15.58635      1.78327      6.41141        -0.884638      0.991644      0.294725
O      15.24559     13.47904      6.78756         1.378099     -0.034698     -0.416165
O       3.72471      2.03877     10.65150         0.081978     -0.447125      0.812901
O       3.67427     13.54859     10.87803         0.952570     -0.591356      0.005290
O       0.02061      1.81396     10.84735         0.758587      0.747259     -0.055767
O      15.43952     13.43595     10.57947        -0.577373      0.921672      0.320876
O       3.77385      5.78108      2.54117         1.197904     -0.242065      0.179537
O       3.94973      5.56896     15.02117         0.038279      0.806293      0.319197
O       0.09569      5.80794      2.61807         0.802244      0.835566     -0.111211
O       0.03676      5.92902     15.34601        -1.341176     -0.879156     -0.226472
O       4.24089      5.81368      7.10525        -1.089395      1.465516     -0.811233
O      15.57896      5.89162      6.94891        -1.341721     -1.329694     -1.286394
O       3.92516      5.52389     10.71951        -0.658052      2.022035      0.045976
O      15.48822      5.77306     10.86316         1.100051     -0.192548      0.392436
O       4.12928      9.57608      2.47573        -1.003595      1.292876     -0.567491
O       3.94017      9.78457     15.17914        -1.704968      0.853923     -0.729689
O       0.07979      9.86500      2.28299        -0.814075      0.004838      0.520750
O       0.09784      9.67500     14.97148         0.275942      1.144397     -0.670191
O       3.73771      9.62739      7.00610         0.626897     -1.018781     -0.640754
O      15.47726      9.68913      6.72622         1.358560      0.386545     -0.053861
O       3.93884      9.95968     10.70661        -2.312044     -0.606807     -0.165312
O      15.51445      9.69262     11.30603        -0.415664      0.064868     -0.041757
O       8.09918      1.95308      2.59638        -0.988123     -0.662973     -1.116037
O       7.72440      2.03274     14.83385         1.748461     -0.186353      0.099676
O       7.74859     13.60266      2.54376         0.672548      0.166563     -0.169997
O       7.57833     13.58091     15.12918         1.080850      0.642048     -2.149377
O       7.57399      2.10910      6.76228         2.179945     -0.356466     -0.473895
O       7.80595     13.36738      6.65120        -1.510747     -0.659256      0.122967
O       7.66075      1.92417     10.74659         1.234955     -0.534715      0.725047
O       7.68697     13.60262     11.07587        -1.221414      0.054647     -0.015913
O       7.81225      5.80205      2.15712        -0.881029     -0.559456      0.786239
O       7.64424      6.22831     14.92394         2.192604     -1.100321      0.498930
O       8.09461      5.63074      6.53930        -1.294377     -0.444317      0.281181
O       8.00888      5.78348     10.82993        -2.941175     -0.555181      0.996962
O       7.76705      9.53423      2.46205        -1.290963      0.394622      0.704469
O       7.68987      9.57694     14.68250         3.202430     -0.149996      0.051171
O       7.67458      9.82365      6.52790         0.380248     -0.239987     -0.347892
O       7.88159      9.46258     10.65435        -2.011239      0.415947     -0.084416
O      11.62115      2.29065      2.14844        -0.262113     -1.209686      0.765465
O      11.49652      2.08855     14.88530         2.285931     -0.983937      0.199823
O      11.58668     13.82424      2.36769         0.264623     -2.056122     -0.359568
O      11.58689     13.70193     14.72263         1.805776     -0.583356      0.318365
O      11.74761      1.56561      6.39353        -1.846702      1.452024     -0.406809
O      11.34743     14.20325      6.82417         1.900654     -4.168345     -1.961084
O      11.62809      1.70567     10.78519        -0.315987      0.077438      0.334673
O      11.59499     13.50292     10.84286        -1.056788     -0.335142      0.253274
O      11.53159      5.77461      2.49287         3.081336     -1.041333      0.138264
O      11.56876      5.82914     15.11267         2.295928      1.331671      0.601780
O      11.83781      5.84367      6.62429        -0.813479     -0.011708     -0.097004
O      11.51274      5.83282     11.18103         4.020720     -0.102225      0.699174
O      11.69116      9.88148      2.48430        -1.150552     -0.939548     -0.893083
O      11.61265      9.85030     14.73556        -0.054994     -0.715699      0.420497
O      11.69427      9.32459      6.73925        -0.653235      0.654399     -0.322228
O      11.55140      9.48916     10.83699         2.325745      1.234114     -0.797910
O       1.87509      3.71267      2.20306         0.142075      1.471084     -0.371186
O       2.03255      3.66363     15.40490        -1.398007      1.064317      0.344054
O       1.94936     15.44940      3.13297        -0.167920      0.949611     -1.879861
O       1.52249     15.58793     14.67431        -0.983919      2.714188      1.508177
O      13.88883      4.03840      2.56154        -0.776496     -2.481948     -1.143881
O      13.59364      4.08336     15.05763         0.619782     -3.137410      0.144155
O      13.60867      0.01451      2.13294        -0.427288     -0.991241      0.085188
O      13.70321      0.01738     15.05531        -0.769296     -1.564965     -0.642316
O       1.99208      3.97052      6.83345        -0.827368     -1.368399     -0.140626
O       1.94181     15.52388      6.67995        -1.084519      0.555712     -0.322490
O      13.52569      3.79646      6.50776         0.631930     -0.804256      0.454361
O      13.55964     15.60779      6.44374         1.193227     -0.221124      0.595072
O       2.00259      3.81023     10.68548        -2.234099      0.704702      0.453441
O       2.04775     15.60045     10.35898        -1.114169      0.201254      0.579794
O      13.41681      3.87486     10.81263         0.948893     -0.709565      0.137211
O      13.54913     15.59619     10.70830        -0.245319     -1.196452      0.871300
O       1.98584      7.89439      2.55728         0.001183     -1.248545      0.226199
O       2.08080      7.66704     15.06114         0.033838      1.683098     -0.498133
O      13.28699      7.77905      2.79695         1.283604     -0.357395     -0.942320
O      13.82870      7.91952     15.13922        -1.597269     -1.151711     -0.561929
O       1.94129      7.68941      6.94897        -0.111858      3.347541      0.084101
O      13.75901      7.73207      6.72769        -0.392073     -0.663862     -0.527109
O       1.97704      7.65955     10.83201        -0.048803      2.833747      0.967403
O      13.74829      7.71225     10.88389        -1.155578      0.471370      0.864592
O       2.24317     11.90758      2.42632        -0.228188     -1.696437     -0.061339
O       2.03158     11.98281     15.06829        -0.868987     -2.967108     -0.196535
O      13.53556     11.79697      2.43179        -0.585738     -1.866244      0.430889
O      13.64609     11.46387     14.89134        -0.263461      2.537087      0.007465
O       2.05938     11.49766      6.86635        -1.442477      0.268398     -1.033153
O      13.29348     11.46918      6.65765        -0.370553      1.342928      0.741072
O       1.72166     11.84050     11.07943         0.325448     -2.205560      0.112887
O      13.46026     11.64424     10.84949         0.150571     -0.095844     -0.593466
O       5.63032      3.78894      2.31436         1.003526     -0.187701      0.018670
O       5.95518      4.00171     15.09510         0.189005     -2.294172     -0.333320
O       6.01962      0.12285      2.87523         0.580447     -2.753850     -0.966242
O       5.81520     15.50946     15.23150         0.229434      0.116050     -1.223477
O       5.64228      3.80496      6.64486         1.577754      1.180246     -0.232958
O       5.97523     15.41690      6.48030         0.302201      1.240734      0.293437
O       5.78709      3.77155     10.79581         1.264586      2.354518      0.534826
O       5.39462      0.03769     10.68808         1.158797     -0.066707      0.908411
O       5.85422      7.65582      2.61777        -0.045124     -0.057566     -0.261840
O       5.58083      7.99860     15.14643         1.354391     -2.476406     -1.356297
O       6.01165      7.75393      6.52929        -0.030826      0.019337     -0.046252
O       5.58149      7.71699     10.98837         0.574519     -1.078211     -0.940332
O       5.84995     11.79184      2.25471         0.224440     -0.647271      0.740630
O       5.64467     11.66252     15.11872         0.590096      1.098740     -0.949063
O       5.48997     11.55479      6.87303         2.155386      1.456361     -0.938003
O       5.97184     11.62795     10.95259         0.170894     -0.732353     -0.507513
O       9.64141      3.85627      2.05844         0.398953     -1.855301     -0.030212
O       9.82424      3.87977     15.35274        -1.958656     -0.491067     -0.653126
O       9.82558     15.39548      2.50096        -0.598544      2.540303     -1.153739
O       9.50581     15.52781     14.82656         0.137339      0.673646     -0.356927
O      10.20677      3.69384      6.50264         0.084928      4.868903      1.018956
O       9.25463     15.56900      6.61750         0.151453      0.506002      0.508084
O       9.93060      3.69096     10.85314        -1.508276      0.890212     -0.390663
O       9.65134     15.23309     10.85214         0.249471      3.234043      0.886347
O       9.82198      7.57899      2.48263        -0.398318      3.225807      0.047237
O       9.80758      7.91166     14.98846        -0.093449     -0.265199     -0.553815
O       9.66312      7.52796      6.64359         0.442404      1.517430     -0.323626
O       9.80512      7.72241     10.72743        -0.038807     -1.145359     -0.307944
O       9.44140     11.45698      2.50726         1.501247      3.110563      0.216749
O       9.40907     11.48071     14.77628         0.850481      1.639285      0.465628
O       9.93164     11.55420      6.57109        -0.279248      0.682173     -0.309618
O       9.55883     11.61760     10.99443         0.882707     -1.786896     -0.534386
