  # total energy = -7882.01564226 
CRSYTAL
PRIMVEC
    15.464    0.0000000000000000    0.0000000000000000
     0.0000000000000000   15.464    0.0000000000000000
     0.0000000000000000    0.0000000000000000   17.350608
PRESSURE
-1.52983 -1.64005 -3.19888 0.141205 -0.032869 -0.027206
PRIMCOORD
320 1
Pb       3.83902      3.79064      4.36202         0.418285     -0.020449     -0.286542
Pb       3.86091      3.95140     17.23985         0.424079     -0.847208      0.303804
Pb       3.75755     15.37103      4.31278         0.663482     -0.144916     -0.066669
Pb       3.82778     15.38808     17.19403         0.773298      0.887334      0.577002
Pb       0.12154      3.86394      4.36802        -0.833092     -0.608652     -0.410816
Pb      15.36472      3.73807      0.04586        -0.428701     -0.003833     -0.200256
Pb       0.09336     15.45404      4.28244        -0.916788      0.018405     -0.143939
Pb      15.39954     15.34813     17.23346        -0.223789      0.122678      0.758751
Pb       3.74501      3.87921      8.54234         0.609872      0.037728      0.326648
Pb       3.80461     15.37841      8.81897         0.428604      0.206676     -0.757969
Pb      15.38805      3.80783      8.50564         0.273907     -0.214330      0.174568
Pb       0.06266      0.06069      8.65386        -0.130307     -0.144065     -0.341837
Pb       3.69477      3.88563     12.95238         0.353156      0.072141      0.169440
Pb       3.76817     15.34721     12.97451         0.481564      0.490006     -0.440212
Pb      15.30956      3.83292     12.95938         0.332035      0.111671     -0.105357
Pb      15.41420      0.01573     12.97324        -0.403034      0.391835     -0.360636
Pb       3.83080      7.65463      4.21941         0.300755      0.442414      0.563383
Pb       3.71583      7.60669      0.20177         0.518550      0.351609     -1.182152
Pb      15.45062      7.73920      4.25497         0.001178      0.055824     -0.662543
Pb      15.45631      7.73727      0.17494         0.015808     -0.153207     -1.090466
Pb       3.84081      7.70813      8.65497         0.082201     -0.110043     -0.401290
Pb       0.09068      7.80185      8.52831        -0.089118     -0.144421      0.737484
Pb       3.88560      7.69388     13.03403        -0.298127      0.078899     -0.114127
Pb      15.42709      7.77738     13.01538         0.027420     -0.301953     -0.285945
Pb       3.91653     11.57245      4.39154         0.230382      0.100116     -0.749251
Pb       3.85963     11.65954     17.31602         0.441216     -0.684605     -0.548084
Pb       0.06330     11.56062      4.33654        -0.273223      0.541602     -0.448273
Pb       0.08577     11.60934     17.34398        -0.579475      0.061522     -0.383379
Pb       3.95683     11.57792      8.68409         0.001579     -0.071320     -0.211145
Pb      15.43273     11.60207      8.59005         0.530818     -0.267500      0.107365
Pb       3.78666     11.63741     13.02140        -0.064819     -0.743969     -0.620355
Pb      15.39214     11.53596     12.87913         0.357935     -0.027521      0.662158
Pb       7.60398      3.81889      4.34148         0.430603     -0.521050     -0.485202
Pb       7.67827      3.92771     17.25573        -0.019470     -0.161879      0.167943
Pb       7.82140     15.33560      4.33922        -0.307975      0.609836      0.118714
Pb       7.62292     15.35239     17.22896         0.166591      0.220107      0.056248
Pb       7.58047      3.86604      8.63749         0.390218     -0.239694     -0.224544
Pb       7.68790      0.05870      8.68917        -0.001790     -0.199863     -0.062972
Pb       7.60977      3.86905     12.92457         0.325006      0.505521      0.090964
Pb       7.73845      0.09707     12.96335        -0.207067     -0.162368     -0.231631
Pb       7.74070      7.70409      4.24330        -0.162926      0.734486      0.159132
Pb       7.78407      7.78198      0.04253        -0.287671     -0.241862     -0.331860
Pb       7.61753      7.65520      8.62055         0.327515     -0.093985     -0.380973
Pb       7.69977      7.79560     13.04835         0.096694     -0.358119     -0.554951
Pb       7.80804     11.57004      4.37805        -0.082731     -0.114174     -0.672767
Pb       7.75364     11.56580     17.23487        -0.208327      0.085357     -0.181181
Pb       7.77170     11.54770      8.66561        -0.104928     -0.016239      0.061685
Pb       7.65035     11.56891     12.91249         0.008254     -0.089565      0.176240
Pb      11.41174      3.90011      4.41701         0.252530     -0.594847     -0.653983
Pb      11.52929      3.83590      0.04221         0.129900     -0.569392     -0.197553
Pb      11.65413      0.00305      4.25987        -0.171678     -0.137100      0.381851
Pb      11.53271     15.39870     17.32189        -0.233872      0.387152     -0.048087
Pb      11.79463      3.88371      8.66314        -1.053411      0.012020     -0.160302
Pb      11.63806     15.44473      8.72461        -0.396423     -0.056361     -0.623691
Pb      11.56030      3.81287     12.98009        -0.019613      0.497675      0.015076
Pb      11.54884     15.46089     12.95721         0.544608      0.112749     -0.121729
Pb      11.67319      7.68997      4.27415        -0.010368      0.345067     -0.384170
Pb      11.67944      7.69716     17.30771        -0.475599      0.414864     -0.086540
Pb      11.53861      7.76756      8.64087        -0.244122     -0.200708      0.088500
Pb      11.58094      7.68015     13.09488        -0.236423     -0.313653     -0.707489
Pb      11.65525     11.45439      4.38994        -0.125264      0.226426     -0.924307
Pb      11.54782     11.55145     17.24606        -0.309129      0.004511     -0.191726
Pb      11.65787     11.58164      8.55975        -0.579000      0.030756      0.983937
Pb      11.60948     11.54671     12.86262        -0.075538     -0.166706      0.125682
Ti       1.96692      1.92852      2.21124        -0.602300     -0.437019      0.126111
Ti       1.90917      1.94749     15.30897         0.801797      0.573183      0.004821
Ti       1.94460     13.56062      2.18966        -0.494562     -0.703167      0.775831
Ti       1.88627     13.60648     15.29037        -0.478209     -1.316409      0.541562
Ti      13.44788      1.97459      2.39530         0.116930     -0.593951     -0.669411
Ti      13.55110      1.87213     15.35960        -0.947971      0.918131     -0.205419
Ti      13.51262     13.43697      2.23636         0.374234      0.907960      0.204643
Ti      13.41304     13.54511     15.17715         0.938541     -0.744416      0.433263
Ti       1.98452      1.86447      6.55344        -0.396820     -0.502012      0.004469
Ti       1.96579     13.49789      6.66716         0.032095      0.225275      0.390951
Ti      13.52310      1.88571      6.56499        -0.336929     -0.460004     -0.172333
Ti      13.57557     13.50730      6.71687        -0.520624      0.824687     -1.481391
Ti       1.93284      1.89770     10.90611         0.082909      0.584897      0.095554
Ti       1.85053     13.55312     10.90128         1.426205     -0.602110     -0.541678
Ti      13.52882      1.98830     10.88019         0.130396     -0.651284      1.132436
Ti      13.59986     13.56273     10.97353        -1.315249      0.270001      0.932814
Ti       1.95972      5.70846      2.31706        -0.996914      0.825303     -0.215777
Ti       1.83218      5.71769     15.38895         0.548872      0.984270      0.372116
Ti      13.50381      5.66730      2.23118         0.308205      0.632917     -0.216569
Ti      13.51815      5.80192     15.34222         0.221778     -0.680991     -0.372663
Ti       1.93917      5.76021      6.55453         0.709479      0.386760     -0.042493
Ti      13.59335      5.82919      6.58222        -1.045798     -0.652720     -0.157760
Ti       1.83585      5.82136     10.99467         0.838245     -0.347365      0.479460
Ti      13.51859      5.87820     10.95614        -0.789722     -0.398302      0.214855
Ti       1.98444      9.67332      2.27754        -0.823398      0.569072     -0.084953
Ti       1.81821      9.66836     15.33847         0.716174     -0.248382      0.193286
Ti      13.60065      9.62679      2.16284        -1.332279      0.685781      0.617229
Ti      13.44884      9.67814     15.27613         0.827289      0.524678      1.580502
Ti       1.94400      9.64705      6.54738         0.105288      0.083948      0.366260
Ti      13.52364      9.65030      6.64977        -0.299684     -0.541178      0.148679
Ti       1.88003      9.63065     10.95968         1.415353     -0.009887     -1.234941
Ti      13.57309      9.63597     10.87472        -1.262633      0.220036      0.255808
Ti       5.73001      1.78982      2.27370         1.822216      0.463045     -1.041292
Ti       5.78726      1.96079     15.22395        -0.030581     -0.051235      1.706769
Ti       5.84020     13.48186      2.29834         0.463641      0.145492     -0.948497
Ti       5.76757     13.54672     15.21383         0.547444     -1.498272      0.838771
Ti       5.75327      1.81181      6.62106         0.870706     -0.050530      1.593769
Ti       5.81564     13.49921      6.61387         0.102667      0.519373      2.173031
Ti       5.74639      1.96575     11.00920         0.157870      0.023247      0.311691
Ti       5.76523     13.52611     10.98800        -0.036516      0.072730     -0.950975
Ti       5.72942      5.71858      2.35052         1.541427      0.331078     -1.105808
Ti       5.72667      5.83599     15.33617         1.123962      0.051449     -0.994853
Ti       5.76932      5.67874      6.52896         0.005342      1.182370      0.263985
Ti       5.68342      5.79721     10.98585         0.030214     -0.225304     -0.175146
Ti       5.79331      9.58969      2.26240         0.718712      1.239677     -0.146248
Ti       5.66095      9.55794     15.34991         0.370471      1.390526      0.067262
Ti       5.81369      9.65544      6.63016         0.193824     -1.299749     -1.452694
Ti       5.79902      9.59134     11.00306        -0.535999      0.793276     -0.319871
Ti       9.56165      1.86219      2.26536         0.861401      0.565525     -0.784771
Ti       9.67057      1.97173     15.33167        -0.285454     -0.032567      0.526138
Ti       9.73099     13.49267      2.37234        -0.589338     -0.672049     -0.738112
Ti       9.64877     13.54870     15.13068        -1.266347     -0.703392      0.436972
Ti       9.64769      1.96189      6.73833        -0.141318     -0.134814      0.381229
Ti       9.60588     13.53344      6.68219         0.286593      0.722015     -1.038251
Ti       9.66688      1.91167     10.98903        -0.493984      0.469243     -0.898293
Ti       9.63123     13.45950     11.06036         0.159232      0.288744     -0.235022
Ti       9.62026      5.74788      2.40662        -0.250265     -0.524408     -1.412759
Ti       9.71146      5.85023     15.38565        -0.743124     -0.459910     -1.207507
Ti       9.73998      5.77703      6.65417        -0.933086     -0.484250      0.851005
Ti       9.64113      5.77815     10.95954        -0.471787      0.985873      0.027799
Ti       9.72555      9.61071      2.28400        -0.382022      1.557449      0.499708
Ti       9.62825      9.66547     15.23571        -0.136090      0.008043      0.730063
Ti       9.61730      9.66685      6.62616        -0.141962     -0.602694     -0.005622
Ti       9.69117      9.59906     11.00675        -0.264843     -0.065928     -0.974731
O       2.01010      1.85374      0.43841        -0.359476      0.271212      1.596410
O       2.00776      2.07508     13.53164        -0.640173     -0.684470      0.439415
O       1.88841     13.48444      0.39720         0.160384      0.429738      1.289993
O       1.85546     13.46540     13.50270         0.266504      0.426724      0.896447
O      13.48377      2.12199      0.55612         0.073484     -0.452649      0.640072
O      13.53845      1.80535     13.58822         0.324336     -0.011263      0.108256
O      13.57526     13.55591      0.43509        -0.567861     -0.360440      1.392591
O      13.64351     13.73615     13.41060        -0.027261     -0.268316      0.457444
O       1.88998      1.76775      4.74190         0.567064      0.714832      1.024482
O       1.86193     13.46442      4.89597         0.308664      0.305674      0.240729
O      13.47320      1.82245      4.76006        -0.053882      0.526221      1.268155
O      13.50606     13.56541      4.92354         0.105083     -0.225140      1.193009
O       1.91901      1.70603      9.10384         0.075303      1.035406      1.263727
O       1.95317     13.75957      9.08635        -0.002461     -1.017617      1.197618
O      13.54965      1.96938      9.12978         0.209585      0.229098     -0.087491
O      13.45195     13.51707      9.25185         0.226835     -0.168083     -0.817722
O       2.03441      5.70781      0.53732        -0.259390      0.221993      0.366004
O       1.93927      5.72175     13.65478        -0.207319      0.177667     -0.685177
O      13.64839      5.48907      0.41165        -0.494968      0.953863      1.010769
O      13.43646      5.79279     13.54272         0.336651      0.399311      0.627429
O       1.96884      5.73826      4.76064        -0.287303      0.144588      0.307619
O      13.51888      5.77020      4.79544         0.237547      0.296035      0.849290
O       2.02576      5.94313      9.27463        -0.237310     -0.548661     -1.320747
O      13.39314      5.76012      9.18582         0.669694     -0.020212      0.254485
O       1.95049      9.72933      0.45820        -0.311283     -0.518993      1.489799
O       1.93747      9.67894     13.54189        -0.554082     -0.175488      0.617261
O      13.62200      9.81022      0.39749        -0.193790     -0.552386      0.185485
O      13.51748      9.66802     13.55949        -0.020799     -0.560383     -1.506483
O       1.69508      9.65762      4.75306         0.599938      0.039379      1.070482
O      13.37802      9.54289      4.87503         0.552123      0.281807      0.834306
O       1.99174      9.57914      9.11041        -0.383782      0.192071      1.227165
O      13.54737      9.63180      9.12264         0.044357      0.135613     -0.318463
O       5.82580      1.73683      0.47559        -0.179096      0.007220      1.421629
O       5.94057      1.98403     13.47753        -0.377687     -0.087184     -0.075630
O       5.90610     13.64728      0.43603        -0.377624     -0.542910      2.132273
O       5.63519     13.56215     13.43835         0.127097     -0.183341     -0.092073
O       5.95025      1.83608      4.92045        -0.677028      0.566365     -1.321129
O       5.85848     13.45375      4.90380        -0.392723     -0.033838     -1.020214
O       5.83359      1.95801      9.27478        -0.208849      0.247059     -0.748811
O       5.76368     13.46897      9.15660        -0.324164      0.079937      1.498293
O       5.71866      5.82581      0.56156         0.021776     -0.201971      0.345927
O       5.72251      5.82628     13.48975         0.127334      0.286338      1.483760
O       5.66195      5.56760      4.74222         0.244464      0.531441      0.193425
O       5.45991      5.76670      9.16810         0.634366      0.222919      0.878313
O       5.77220      9.64986      0.48409        -0.117235     -0.094694      0.724916
O       5.75129      9.61639     13.52863        -0.005660     -0.187589      0.488818
O       5.99617      9.65869      4.82983        -0.641859      0.372383      0.817704
O       5.75689      9.55670      9.19130        -0.126315      0.178252      0.530817
O       9.78082      1.86492      0.44943        -0.564345     -0.080996      0.738257
O       9.68592      2.09647     13.56466        -0.104654     -0.499373      0.043624
O       9.65518     13.42967      0.56142         0.278862      0.237030      0.888861
O       9.53234     13.40947     13.37557         0.258390      0.373172      0.189783
O       9.62900      1.93976      4.96137         0.152278      0.223300      0.802961
O       9.51997     13.59035      4.82671         0.718937     -0.358302      1.710610
O       9.44413      1.81849      9.20836         0.969782      0.319775      1.334985
O       9.66286     13.52828      9.27571        -0.032394     -0.438359      0.914168
O       9.50164      5.81041      0.61455         0.669058      0.023196      0.595461
O       9.82904      5.83952     13.56640        -0.496645      0.355777      1.239003
O       9.78032      5.67021      4.88875        -0.298132      0.199801     -0.842400
O       9.59173      5.97190      9.19981         0.407021     -0.516818      0.333887
O       9.63994      9.77591      0.52103         0.423916     -0.334224      0.435851
O       9.74209      9.54409     13.43891        -0.465688      0.167480      1.017394
O       9.64522      9.64698      4.82408         0.091326      0.054403      1.372534
O       9.66665      9.69837      9.18853        -0.355161     -0.278552      0.333577
O       3.91585      2.06977      2.66144        -1.380323     -0.287907      0.062257
O       3.88324      1.90283     15.71150        -0.028383     -0.207182     -0.482933
O       3.86520     13.50917      2.78226        -0.562458     -0.060794     -0.540750
O       3.84964     13.49102     15.83641        -0.786514      0.004564     -1.339105
O      15.40271      1.98508      2.76362         1.046526     -0.546540     -0.515686
O       0.00948      1.78127     15.76521        -0.238888      0.645056     -0.438060
O      15.46142     13.62086      2.72465        -0.002377     -0.005653     -0.700731
O      15.42011     13.50662     15.78260         0.780449      0.452769     -0.953505
O       3.90170      1.93556      6.98763        -1.244266     -0.078336     -0.234198
O       3.88678     13.62883      6.97770        -0.412082     -0.727112      0.016309
O       0.00670      1.91860      6.87746        -0.012624      0.343984      0.320154
O       0.02402     13.48419      7.10619        -0.336645      0.099145     -0.102342
O       3.88532      1.98487     11.33082        -1.421350     -0.098777      0.013931
O       3.77787     13.51839     11.34250         0.535812     -0.292188      0.031142
O       0.01344      1.88417     11.33657         0.362672      0.173134     -0.060359
O       0.04084     13.60158     11.21082        -0.869073      0.096096      0.446652
O       3.88368      5.76366      2.66817        -1.489016     -0.130890      0.302766
O       3.91663      5.79426     15.74803        -1.066156      0.103736      0.182182
O       0.00540      6.00901      2.52024         0.115539     -0.634394      0.391701
O      15.43439      5.76718     15.61251         0.030296     -0.046813      0.474560
O       3.84324      5.90514      6.88545        -0.946855     -0.867484      0.246962
O       0.03407      5.63648      6.99371        -0.381271      0.682824     -0.260878
O       3.79635      5.71756     11.50520        -0.372263      0.933374     -0.384000
O      15.40130      5.78346     11.46213        -0.052633      0.230545     -0.161201
O       3.77880      9.65712      2.77161         0.610942      0.630994     -0.177893
O       3.83779      9.68579     15.71547        -0.453997     -0.342222     -0.133874
O      15.39635      9.61426      2.73173         0.753517     -0.109699     -0.425392
O      15.38730      9.79835     15.59795         0.718950     -0.846845      0.292704
O       3.80786      9.64349      6.76983        -0.128066      0.368785      0.195369
O      15.44439      9.65150      7.09044        -0.163111      0.126931     -0.625929
O       3.74638      9.71360     11.41383         0.566261     -0.030965     -0.196575
O      15.41110      9.62249     11.27113         0.590051     -0.066845      0.543330
O       7.74695      1.82409      2.79325        -0.666973      0.244998     -0.584652
O       7.69160      1.91295     15.76557         0.216591      0.014266     -0.639452
O       7.71412     13.55048      2.80559        -0.053276     -0.088399     -0.743009
O       7.69532     13.48145     15.56661        -0.056400     -0.115936     -0.074739
O       7.65184      1.94049      7.16693         0.727922      0.118202     -0.331639
O       7.71704     13.58882      7.03255         0.075053     -0.418573      0.126860
O       7.74009      2.00807     11.37677         0.288023     -0.280717      0.324349
O       7.68657     13.63902     11.36010         0.032858     -0.543927     -0.012803
O       7.71610      5.92351      2.69289         0.031320     -0.054369      0.455609
O       7.66872      5.74267     15.74360         0.624321      0.518850     -0.218811
O       7.64972      5.73859      6.92716         0.055866      0.151514      0.130844
O       7.64500      5.85778     11.23618         0.064448     -0.124378      0.297114
O       7.70323      9.63442      2.63074         0.153504     -0.355195     -0.010401
O       7.79016      9.59912     15.75187        -0.442503      0.198275     -0.583323
O       7.73092      9.54207      7.11049         0.212454      0.425069     -0.173476
O       7.70904      9.57759     11.40560        -1.160729      0.452609     -0.035679
O      11.52072      2.08660      2.65480         0.567146     -0.197578      0.376883
O      11.58846      1.95342     15.75895        -0.231505     -0.473451     -0.213548
O      11.60386     13.51057      2.70184         0.262559     -0.270939     -0.126291
O      11.50362     13.52595     15.44283         1.075983      0.027078      0.351460
O      11.61985      1.95814      7.16891        -0.081069     -0.480904     -0.598933
O      11.59016     13.44074      7.14210        -0.008919      0.293911     -0.512029
O      11.64903      1.97931     11.37902        -0.708584     -0.317737     -0.380588
O      11.61834     13.47170     11.51532        -0.268792      0.340030     -0.671389
O      11.58474      5.61685      2.63809         0.186746      0.634537      0.036385
O      11.62338      5.90346     15.73571        -0.433458     -0.352214      0.334805
O      11.58339      5.71996      7.02920         1.113598      0.109897     -0.114280
O      11.61491      5.91214     11.44247        -0.274701     -0.344769     -0.523855
O      11.63416      9.68323      2.70225         0.172316      0.338478     -0.196082
O      11.54817      9.60511     15.74387         0.367784      0.228957     -0.096665
O      11.56479      9.73178      7.11098        -0.052256     -0.532952     -0.781655
O      11.55327      9.68299     11.21987         1.242126      0.020548      0.452833
O       1.79281      3.85528      2.71725         0.708486     -0.119726     -0.311361
O       1.97220      3.82141     15.77257        -0.316099      0.093603     -0.109678
O       1.97872      0.01396      2.73276         0.070720     -0.048669     -0.835963
O       1.98703      0.04869     15.69377        -0.386326     -1.578791     -0.705462
O      13.63508      3.91744      2.70735         0.151733     -0.316510      0.336413
O      13.47607      3.81718     15.61013         0.511699      0.033831      0.099465
O      13.34783      0.03443      2.72956         0.769600     -0.245389     -0.857792
O      13.48553     15.40399     15.80210        -0.141442      0.321930     -0.345907
O       1.95057      3.79672      6.88977         0.107220      0.723104      0.126446
O       1.92400      0.03610      7.10151         0.024822     -0.439532     -0.939648
O      13.52306      3.80578      7.06131         0.220324      0.616398     -0.388780
O      13.60781     15.45652      7.11079        -0.642514     -0.127721     -0.294106
O       1.89411      3.88443     11.27257        -0.178088     -0.945179     -0.025656
O       2.05475     15.42911     11.31819        -0.587258      0.694659      0.272617
O      13.52506      3.85296     11.38838         0.127449      0.324593     -0.297628
O      13.57416      0.06617     11.28318        -0.295642     -0.690432      0.137560
O       1.94443      7.75641      2.65657         0.172663     -0.285011     -0.215405
O       1.95362      7.66720     15.86971        -0.624860      0.535722     -0.162506
O      13.43252      7.77064      2.50000         0.081585     -1.038862      0.079741
O      13.56651      7.74938     15.76308         0.054486     -0.288393      0.091620
O       1.87430      7.69838      7.02053        -0.180900     -0.014773     -0.780416
O      13.50548      7.66504      7.03238         0.210051      0.368663     -0.361474
O       1.86593      7.70732     11.27564        -0.124957      0.538184      0.907830
O      13.51215      7.78323     11.25681         0.260271     -0.600536      0.447713
O       1.75959     11.65532      2.74079         0.784228     -0.328163     -0.677228
O       1.85988     11.54558     15.88081         0.793261      0.883738     -1.188488
O      13.53242     11.58404      2.68511         0.105545      0.239459     -0.067576
O      13.49379     11.63867     15.46963        -0.545393      0.458115      0.317441
O       1.91817     11.60127      7.07964         0.112952     -0.395959     -0.342585
O      13.53042     11.54925      7.04330         0.285940      0.069443     -0.142071
O       1.77695     11.56733     11.38247         0.367529      0.591271     -0.598009
O      13.59533     11.58314     11.37437        -0.182840      0.316466     -0.331009
O       5.90046      3.90092      2.65693        -0.208318     -1.347486      0.069933
O       5.73145      3.83322     15.77129         0.356518      0.115941     -0.590488
O       5.75735     15.46176      2.81856        -0.359231     -0.646107     -0.437206
O       5.77724     15.35677     15.63526        -0.119376      1.349877     -0.339782
O       5.72541      3.85644      7.01874        -0.252804     -0.119607     -0.000228
O       5.79790     15.43067      7.08937        -0.065230     -0.090349     -0.319710
O       5.71883      3.94080     11.41125         0.460532     -0.499401     -0.201867
O       5.72706      0.05676     11.33559         0.040040     -0.819067      0.258559
O       5.68201      7.77817      2.66188         0.019081     -0.880305      0.385967
O       5.84866      7.73274     15.80922        -0.388610     -0.495119     -0.446746
O       5.70651      7.76488      6.83677         0.384251     -0.811304      0.619868
O       5.62933      7.77301     11.43304         0.250848     -0.746459     -0.298404
O       5.78969     11.62472      2.72873        -0.299713     -0.219245     -0.241862
O       5.71361     11.54580     15.70519         0.363434      0.461828     -0.181093
O       5.78169     11.54027      7.08990        -0.047263      0.523744     -0.077554
O       5.75935     11.58373     11.25907         0.161270      0.210003      0.429035
O       9.56494      3.79920      2.66622        -0.255288      0.968106      0.384342
O       9.61095      3.92091     15.71032         0.441864     -0.228456      0.199592
O       9.73135      0.00056      2.73995        -0.067540     -0.420410     -0.340131
O       9.60751     15.39791     15.51024         0.257215      0.737068      0.122275
O       9.68813      3.84142      7.18859        -0.343418     -0.025532     -0.356405
O       9.69756     15.40623      7.19235        -0.086891      0.413006     -0.486854
O       9.68327      3.91117     11.39925         0.038324     -0.301882     -0.404085
O       9.73271      0.01946     11.46485        -0.376790     -0.035581     -0.273706
O       9.80177      7.81801      2.79339        -0.570782     -1.896699     -0.254546
O       9.70576      7.76862     15.86699        -0.225581     -0.678458     -0.512822
O       9.64444      7.62318      6.98214         0.197744      1.386928      0.034824
O       9.53205      7.77356     11.36962         0.692431     -1.243729      0.295546
O       9.67967     11.56048      2.83063        -0.007083      0.358869     -0.230698
O       9.63805     11.55957     15.73161         0.322496      0.229039     -0.662033
O       9.46710     11.58495      7.00178         0.698987     -0.226531     -0.184200
O       9.60649     11.48929     11.52070        -0.293887      1.485116     -0.703481
