  # total energy = -7848.77636553 
CRSYTAL
PRIMVEC
    15.6080000000000005    0.0000000000000000    0.0000000000000000
     0.0000000000000000   15.6080000000000005    0.0000000000000000
     0.0000000000000000    0.0000000000000000   16.6239999999999988
PRESSURE
3.24747 4.04175 1.26993 -0.380447 -0.111797 0.127067
PRIMCOORD
320 1
Pb       4.19392      4.00929      4.25310        -0.048446      0.134990     -0.205495
Pb       4.09069      3.67220     16.62053        -0.384202      0.862554      0.718763
Pb       4.22453      0.05720      4.15596        -0.044347     -0.110565      0.062075
Pb       3.94098      0.18930      0.34550        -0.134101     -0.305883     -1.385048
Pb       0.33162      3.88808      4.19889        -0.756119      0.794527     -0.285155
Pb       0.05597      3.86695      0.15257        -0.325400      0.624509      0.699446
Pb      15.48374      0.07680      4.14711        -0.572356     -0.332410      0.263189
Pb       0.02883      0.08378      0.03218         0.110274      0.048425     -0.625716
Pb       4.01156      3.74157      8.18646        -0.330030      0.945252      0.216340
Pb       3.92906      0.01617      8.72307         0.640864     -0.183360     -0.478556
Pb      15.56569      3.73694      8.32076        -0.669788      0.349892     -0.450239
Pb      15.26725     15.52616      8.10236         0.271496     -0.281680      0.850710
Pb       3.66782      3.83258     12.27090         1.336355      0.573883      1.378071
Pb       3.81194      0.36650     12.37791         0.358510     -1.152754      1.184874
Pb       0.24566      3.91164     12.42266        -2.640422     -0.489977      1.416448
Pb      15.23533     15.33591     11.95004         0.922745      0.971722      2.392269
Pb       3.94018      8.20969      4.15689        -0.281396     -1.177341      0.272690
Pb       4.02115      7.95104      0.00994        -1.357503     -0.399438     -0.207031
Pb       0.15362      7.67966      4.14464        -0.315334     -0.008537      0.422759
Pb       0.08119      8.18322     16.49193         0.228643     -1.471516      0.251996
Pb       4.17321      7.92100      8.69289        -1.590966     -1.224939      0.106448
Pb       0.02393      7.79912      8.55010         0.473185      0.494635     -0.003871
Pb       3.81547      7.52445     12.75948        -0.079463      0.562815     -0.608588
Pb      15.58594      7.58372     12.50593         0.712891      0.441724      0.715396
Pb       3.69413     12.00574      4.62324         0.895245     -0.969795     -0.424897
Pb       3.48465     11.85773      0.30499         0.375625      0.123419     -0.682225
Pb       0.21691     11.61635      4.13736        -1.172655      0.236577      0.515807
Pb      15.41416     11.61978     16.38280         0.206171      0.831002      0.541381
Pb       3.77288     11.52535      8.30337         0.004185     -0.092645      0.489259
Pb      15.45840     11.60343      8.18523        -0.353172     -0.215968      0.625401
Pb       4.43528     11.86579     12.47148        -2.599457     -1.465986      0.619625
Pb      15.28696     11.79016     12.50367         0.667100     -0.057040     -0.928034
Pb       8.16658      3.97441      3.64580        -2.122802     -1.393927      1.569676
Pb       7.83920      3.99421     16.42598        -0.970312     -1.229803      0.579354
Pb       8.34659     15.57477      4.12187        -1.587837      0.712021     -0.494683
Pb       7.61775     15.28071     16.55152         0.708618      1.904657     -0.730721
Pb       7.47389      4.05137      7.91185         2.239921     -0.982195      2.785708
Pb       7.68762      0.04725      8.37051        -0.191759     -0.407494      0.275198
Pb       7.89761      3.91423     12.40364        -0.312393     -0.100334      1.099410
Pb       8.20561      0.29185     12.69326        -2.547081     -1.233173      1.430429
Pb       7.54794      7.86783      4.07134         0.917678     -0.186747      0.583251
Pb       7.62100      7.90714      0.22949         0.718520     -0.882344     -1.162076
Pb       7.68038      8.05391      8.27621         0.718573     -1.349907      0.680291
Pb       7.70814      8.07357     12.50128        -0.375436     -2.349807      0.412603
Pb       7.68009     11.82836      4.02587         0.427529     -0.103569      0.680440
Pb       7.98692     12.13825     16.58271        -0.382477     -1.526588     -0.372684
Pb       7.60283     11.42352      7.95283         1.107772      0.885644      2.273534
Pb       7.91133     11.41855     12.73334         0.277380      1.583947     -0.688157
Pb      11.29598      3.78371      3.93783         2.122850     -0.726858      0.361497
Pb      11.82237      3.70973     16.53921         0.348806      0.614969      0.087053
Pb      11.67104     15.37512      4.32127         0.568701      0.059881     -0.640296
Pb      12.05255     15.60438      0.29748        -0.799624     -0.086877     -1.765211
Pb      11.54316      4.06277      8.58418         0.244290     -0.109789     -1.005672
Pb      11.59064      0.27323      8.12444         0.787118     -0.952010      0.432696
Pb      11.53139      3.43836     12.36922         0.920715      1.590457      1.554033
Pb      11.50722     15.24867     12.30420         0.891891     -0.317146      0.768409
Pb      11.14861      7.54331      4.21544         2.531144      0.807393     -0.582425
Pb      11.96895      7.91985     16.58204        -0.312888     -0.572923      0.882440
Pb      11.94654      7.56843      8.80420        -0.631336      0.802117     -0.812696
Pb      11.56560      7.70082     12.65335         0.527154     -0.076629     -0.589206
Pb      11.35532     11.46115      3.87096         1.858497      0.603170      1.540907
Pb      11.91020     11.40297     16.23183        -0.931155      1.755321      1.575619
Pb      11.23729     11.67975      8.24673         1.802875      0.406951      0.820201
Pb      11.76225     11.56555     12.37702        -1.150240      0.600818     -0.627398
Ti       2.10532      1.81897      2.42396        -1.104848      2.551999     -2.920846
Ti       1.84615      1.88475     14.75294        -0.431140      0.076521      1.289800
Ti       1.92563     13.80202      2.39407        -0.457614     -0.617750     -0.529191
Ti       1.80588     13.77923     14.25823         0.344340      1.308431     -0.115540
Ti      13.71755      2.11457      2.16966         0.118898      0.559687     -0.376112
Ti      13.70531      1.97831     14.65786         0.089347     -1.336964     -0.177530
Ti      13.65679     13.67620      2.04100        -0.790659     -2.263735     -0.148746
Ti      13.60085     13.71251     14.52161        -0.061090      0.554535     -0.569915
Ti       1.90544      1.94712      6.24058        -1.128916      0.798819      1.743054
Ti       1.93625     13.78283      6.62766        -1.692356     -1.111440      0.126505
Ti      13.51212      1.81800      5.97024        -0.112984      2.937237      1.111911
Ti      13.38779     13.45112      6.32276         1.800417     -0.837656      0.533577
Ti       1.83425      1.91369     10.22181        -1.812886      0.117725      0.102624
Ti       1.89460     13.70464     10.42140        -0.098098     -1.799987      4.647540
Ti      13.57398      1.90090     10.55097         1.276526      1.190521     -0.894891
Ti      13.40664     13.57990     10.26021        -0.904671     -0.901029     -0.705415
Ti       2.06014      5.84349      2.18614         0.244788     -0.226743     -0.686673
Ti       2.04686      5.79954     14.99194        -1.784626     -0.304772     -0.632795
Ti      13.67435      6.09295      2.40562        -0.357090     -2.192811     -2.216559
Ti      13.69709      5.85021     14.93550         1.971124     -1.111460     -1.721433
Ti       2.22354      5.85767      6.68199        -2.199391      0.523141      0.426421
Ti      13.85888      5.73310      6.31163        -1.782111      0.007818     -1.447944
Ti       2.06872      5.75085     10.49990        -2.343416      2.975566     -1.102370
Ti      13.67160      5.78775     10.83017         0.059508     -1.455584      0.302277
Ti       2.07977      9.79865      2.27128        -1.393511     -0.993365     -2.229630
Ti       2.12193     10.04851     14.65841        -0.360113     -3.135667     -1.529951
Ti      13.69696      9.81873      2.36720        -0.995481     -0.197670     -0.963664
Ti      13.70496      9.70253     14.48273        -0.197823     -0.322273      0.476280
Ti       1.75624      9.63933      6.49704         0.168686      0.504858      0.941813
Ti      13.54140      9.49597      6.24200         1.175131      0.706932      1.700261
Ti       1.83256      9.89869     10.87492        -0.666922     -0.180065     -1.294113
Ti      13.58970      9.64116     10.62212        -0.357443      0.554398     -1.192503
Ti       6.12154      1.92981      2.26010        -0.345708      0.401615     -1.561483
Ti       5.81029      1.81033     14.75477         1.872871      0.493456     -0.989616
Ti       5.81096     13.67589      2.23746         0.623542     -0.611986      0.887591
Ti       5.61042     13.64044     14.65480         0.602036      1.286925     -0.370714
Ti       5.69207      1.86983      6.24421         2.618326      0.668853     -0.983187
Ti       5.81560     13.63752      6.38114         0.599038     -0.271474     -0.031900
Ti       5.88712      1.93312     10.47346         1.485643      0.640105      0.048219
Ti       5.79054     13.66892     10.60645         0.714386      0.012484     -1.119649
Ti       5.79014      5.86416      2.08874         1.515957     -1.341686     -0.378599
Ti       5.77064      5.83926     14.76160         1.574181     -1.420044     -2.243738
Ti       6.11396      5.99207      6.21404        -3.236356     -1.359491      3.285903
Ti       5.93454      5.74596     10.63356         1.115776      1.747042     -0.375518
Ti       5.90607      9.91573      2.11724        -1.344478      0.037994     -0.689477
Ti       5.80966      9.77805     14.76207         0.126002      0.509896     -0.949924
Ti       5.75600      9.63852      6.36849         0.210143      2.023373     -1.849769
Ti       5.65648      9.65314     10.69885         0.451846     -0.283758     -0.080485
Ti       9.85563      1.75064      1.81638        -0.603444      1.687197     -0.708501
Ti       9.82252      1.91035     14.79851        -0.451956     -1.469786     -0.895738
Ti       9.82703     13.58580      2.06714         0.821362      0.565957     -1.920957
Ti       9.80300     13.59487     14.61633         0.360552      1.365610     -1.219092
Ti       9.54121      1.91304      6.43166         0.711877      1.788922     -1.521920
Ti       9.57286     13.61745      6.35770         1.125097     -1.415428     -0.722169
Ti       9.78281      1.74983     10.44316        -1.306174      3.138436     -0.908568
Ti       9.35962     13.48919     10.56243         1.585101     -1.513123      1.001868
Ti       9.73500      5.81836      1.92561         1.246315     -0.096970     -0.550321
Ti       9.76528      5.94131     14.80288        -0.600469     -0.762394     -1.823739
Ti       9.93460      5.80148      6.22197         0.282932     -0.914255      1.541083
Ti       9.85188      5.74841     10.69186        -1.206504      0.625605     -0.534173
Ti       9.60304      9.60291      2.08385         2.419725      0.608140     -1.783594
Ti       9.69100      9.63875     14.58758         0.282320      0.984885      0.198525
Ti       9.92055      9.52057      6.36694        -1.023303      1.113738      0.063478
Ti       9.58758      9.57610     10.38419         1.016279      0.497190      3.942235
O       1.85931      1.50398      0.45495         1.021477      0.057252      1.334899
O       1.95496      2.31573     13.01905         0.410275     -0.794065     -0.143090
O       2.01451     13.92886      0.67290         0.080218     -0.215626     -0.136111
O       1.77399     13.96964     12.46220         0.027180     -0.449071      1.452606
O      13.61182      1.81988      0.27725         0.104155     -0.028625      1.342787
O      13.72592      1.87882     12.91065        -0.135573     -0.439422     -1.569166
O      13.64544     13.51390      0.15469         0.268266     -0.062028      1.537694
O      13.44539     13.62451     12.62675         0.497849      0.200743      0.201342
O       2.07639      2.14613      4.48821         0.291733     -0.093210     -1.284252
O       1.84137     13.30879      4.93153        -0.209423      0.910139     -2.114957
O      13.43757      1.80292      4.15695         0.498426     -0.329305      0.891570
O      13.28926     13.67540      4.52809         0.616205      0.253767     -1.106969
O       1.82749      1.96002      8.45609         0.335560     -0.205898      0.369858
O       1.74840     13.42350      8.78567         0.831706     -0.500978     -5.180408
O      13.64007      1.98825      8.73057        -0.366437     -1.024136      0.395873
O      13.14712     13.71870      8.47353         0.942418      0.240503      0.926340
O       2.14053      6.06263      0.45678         0.154428     -0.186477     -0.270465
O       1.83288      5.42591     13.08713         1.197220      1.411141      0.970278
O      13.62188      6.09740      0.52325         0.659494      0.233347      0.723497
O      13.81351      5.86784     13.10046         0.057736      0.056607     -0.089204
O       2.12909      5.79503      4.91274        -0.083048      0.201174     -1.573089
O      13.80606      5.89167      4.49337         0.328797     -0.843525      0.004700
O       1.91798      5.83580      8.71526        -0.354624     -0.110568      0.683767
O      13.26825      5.70476      9.02205         0.755940     -0.113473     -0.991986
O       2.03635      9.92998      0.35592        -0.374206     -0.380719      1.070385
O       2.14378      9.81081     12.88008         0.158347      0.212980      0.929762
O      13.72647      9.86911      0.33406        -0.167484     -0.170829      0.171065
O      13.40074      9.63790     12.78978         0.356624      0.081585     -0.716858
O       2.01191      9.79630      4.68563         0.178665     -0.410140     -1.886039
O      13.50744      9.78292      4.55715         0.480822     -0.095485     -2.021525
O       1.45851      9.85534      8.94170         0.474399     -0.151297      0.915614
O      13.64623      9.57785      8.80811         0.460884     -0.406928      0.554242
O       5.96349      1.84540      0.34835        -0.194711     -0.758131      1.361926
O       5.62272      1.71126     12.90681        -0.241691      0.698602     -0.589051
O       5.77733     13.68742      0.48268        -0.271108     -0.085857     -1.162672
O       5.79016     13.63543     12.88699        -0.610059      0.299314     -0.733601
O       5.87638      2.13123      4.37387        -0.613138     -1.150473      0.871558
O       5.83155     13.40382      4.57760        -0.167866      0.399606      0.365381
O       5.83625      1.71293      8.57007        -0.984972      0.698614      0.657898
O       5.83796     13.61088      8.78940        -0.375769      0.730910     -0.042016
O       5.78943      5.86002      0.30321        -0.045799      0.310004     -0.048141
O       5.78791      5.72730     12.86646        -0.466963     -0.013934      1.174871
O       5.95625      5.62114      4.59936        -0.450346     -0.040933     -4.113857
O       6.17727      5.88303      8.74697        -0.731158      0.470489      0.161222
O       6.02559      9.63570      0.24478        -0.314074      0.453015      0.995852
O       5.70463      9.56283     12.82332         0.065482      0.477387      0.572328
O       5.64622      9.94077      4.53846         0.013217     -0.672025     -0.360946
O       5.87067      9.56625      8.80733        -0.245112     -0.008289     -1.444947
O       9.68071      1.51868      0.03691         0.500064      0.482718      1.411557
O       9.69057      1.99529     12.85771         0.608324      0.075770     -1.281098
O       9.89062     13.54596      0.15032        -1.203531      0.306234      1.066523
O       9.56470     13.52434     12.76158         0.541243     -0.024352      0.297099
O       9.67608      2.02644      4.50166        -0.209203     -0.292678      0.134254
O       9.79237     13.53245      4.48316        -0.678732      1.234247      1.052333
O       9.65258      1.87098      8.63219         0.408866     -0.241285     -0.702637
O       9.32588     13.44830      8.80158         0.485773      0.492448     -1.211308
O       9.72395      6.00311      0.19219         0.443711      0.050243      0.354596
O       9.67065      5.51894     12.95083         0.691334      0.887087      1.307187
O       9.83842      5.56583      4.33412        -0.649743      0.997361     -0.150534
O       9.87593      5.92740      8.79000         0.863341     -0.938034      0.486917
O       9.61133      9.58832      0.22925        -0.473478      0.316948      1.414218
O       9.55910      9.65929     12.74167         0.713909     -0.152194      0.561294
O       9.85137      9.43301      4.61942        -0.476942      1.315384     -1.875845
O       9.55888      9.75417      8.70529         0.348239     -0.508846     -3.955395
O       4.00078      1.61252      2.32095         0.068131      0.281358      0.760619
O       3.87538      1.92120     15.22542        -1.202521     -1.204387     -1.009419
O       3.87016     13.74727      2.78336        -0.244799     -0.290731     -0.458851
O       3.73584     14.09283     14.77675        -0.438995     -1.336419     -0.004178
O       0.06323      1.95060      2.45933        -0.572979     -1.026210      0.771498
O       0.01023      2.17027     15.27616         0.200917     -1.296075     -1.182921
O      15.55876     13.64388      2.53098         0.213329     -0.192814      0.383560
O       0.00109     13.70857     14.58957        -0.620182     -2.127726      0.470070
O       3.86843      1.78783      6.43099         0.056667      0.239895      0.649852
O       3.88931     13.48414      6.61848        -0.965535      0.906172      0.547119
O      15.56230      2.07333      6.12527         0.483000     -0.795082      0.266573
O      15.36616     13.56554      6.59165         1.322728      0.089822      0.624732
O       3.72466      2.03895     10.73824        -0.074573     -0.212298     -1.169262
O       3.85109     13.43024     10.80697        -0.294361      0.720383     -1.022479
O      15.56810      1.92532     10.70854         0.800816     -0.855781     -0.383150
O      15.30356     13.69851     10.38948         0.918825     -0.362618      0.003662
O       4.10672      5.68317      2.60953        -2.406660      0.283097      0.078737
O       3.95429      5.77454     15.00953        -1.383398     -0.429698      0.058707
O       0.20623      6.02833      2.61002        -0.283921     -0.723541     -0.242929
O      15.59793      5.88265     15.39608         1.238360      0.334930     -0.748186
O       3.94305      6.03145      6.98790         1.983055     -0.555877     -0.520693
O       0.00459      5.57718      6.63538         0.179033      0.387005      0.523022
O       3.83208      5.87137     10.67490         1.053168     -1.107485      0.541387
O      15.60448      5.87658     10.92562        -0.739767      0.113865     -0.339225
O       3.90805      9.77818      2.25353         1.432462     -0.129951      0.587479
O       3.97697      9.92789     15.08306         0.229751     -0.655389      0.198591
O      15.52407      9.79083      2.36693         1.555634     -0.143987      0.817842
O       0.09328      9.97169     14.77284        -0.844890     -0.890610      0.080221
O       3.98056      9.35158      6.76142        -0.647596      1.338945     -0.042451
O      15.52779      9.74050      6.65599        -0.829343      0.028164     -0.566529
O       3.71442      9.81613     10.60822         1.337300      0.009015     -0.082647
O      15.42648      9.70803     11.28628        -0.097756     -0.230258     -0.997250
O       7.94270      1.75826      2.34476         0.030163      0.264657      0.199454
O       7.81966      1.83775     14.75955        -0.884086     -0.100779      0.389195
O       7.85334     13.61202      2.40184         0.016760     -0.059610     -0.142688
O       7.68843     13.65262     14.75069         0.169524     -0.503066      1.746931
O       7.76751      2.15171      6.35745        -1.390488     -0.251022      0.732176
O       7.64254     13.35608      6.63936         1.509258      1.031920     -0.680148
O       7.70865      1.97193     10.56747        -0.576422     -0.479438      0.490792
O       7.57316     13.65157     11.04689         0.585532      0.156552     -0.707199
O       7.82114      5.79316      2.25176         0.511633      0.349892     -0.023747
O       7.83964      5.89408     15.13592         0.128785      0.256567     -0.836249
O       7.81040      5.66159      6.42967         2.593498      0.793063     -0.150724
O       7.77465      5.75322     11.09649         0.695622      0.779989     -1.077722
O       7.68412      9.70886      2.58483         0.738821      0.055871     -0.179393
O       7.84350      9.55665     14.65016        -1.743597      0.155154      0.991985
O       7.72655      9.72554      6.37794         0.309101      0.007817      0.913809
O       7.61462      9.40080     10.68169         1.397297      0.078296      0.028493
O      11.65824      1.90953      2.29824         0.646348      0.654181     -0.698837
O      11.81064      1.82037     14.93101        -1.583522      0.487766      0.065834
O      11.66387     13.36626      2.16986         0.344729      1.206326      0.588675
O      11.73936     13.51674     14.70673        -1.591929      0.035756      0.056452
O      11.44699      1.64770      6.24765         2.282031     -0.317157      0.744530
O      11.61085     13.68313      6.53919        -4.336767      1.599193      0.386759
O      11.65336      1.78012     10.71007        -0.778174      0.263833     -0.194214
O      11.35902     13.42471     10.76748         0.411664      0.746418     -0.214418
O      11.76535      5.69608      2.25484        -1.569559      0.594412      0.957383
O      11.92352      6.00671     15.16683        -3.547017     -0.897475     -0.335413
O      11.77543      5.81187      6.38012        -0.745673      0.469243      0.525560
O      11.83175      5.67452     11.30654        -2.270954      0.026204     -1.016667
O      11.47960      9.60881      2.36330        -0.415033      0.346282     -0.040342
O      11.70087      9.68984     14.75391         0.142667      0.287240      0.178462
O      11.77142      9.36729      6.62240        -2.097770      0.451444      0.626143
O      11.59254      9.59092     10.75989         0.079715      0.125433     -0.036575
O       2.02954      3.84467      2.16562         0.114143      0.051433      1.344373
O       1.89814      3.89639     15.49021         1.398182      0.321352     -1.263978
O       1.87549      0.05961      2.86379         0.308487     -2.125053      0.444884
O       1.31870      0.02756     14.60643         2.123105      1.227300      0.576201
O      13.93634      3.89058      2.20864        -1.067236     -0.281798      0.794139
O      13.61883      3.77293     14.93962        -0.189751      2.288244      0.712254
O      13.39712     15.44511      2.20478         0.957267      0.406507      0.859349
O      13.63560     15.46375     14.82148         0.415986      1.505792      0.540174
O       1.92643      3.83937      6.88979         1.331436     -0.103280     -1.055800
O       1.74741      0.00827      6.55219         0.492748     -0.484750      0.053806
O      13.55579      3.61592      6.62212        -0.275881      0.709450     -0.594459
O      13.75731      0.03686      6.49405        -1.394973      0.344005     -0.642173
O       1.59652      3.96417     10.66687         2.096466     -1.984453     -0.723923
O       1.85626     15.60040     10.21462         0.778772      0.520306      0.927380
O      13.64478      3.73893     10.88066        -0.377610      0.221902     -0.139708
O      13.37564     15.43468     10.65309        -0.447643      1.466308     -0.257397
O       2.14854      7.78986      2.45609        -0.065571      1.244927      0.874605
O       2.17829      7.87976     14.99674        -0.419831     -0.628355      0.013368
O      13.63598      7.85246      2.68344         0.091217      0.645542     -0.161046
O      13.63862      7.84893     14.97921         1.136211      1.304922     -0.192161
O       1.87729      7.94862      7.15749        -0.140480     -2.329559     -1.037686
O      13.80106      7.65200      6.49222         0.286881     -0.284471      0.699645
O       1.84766      7.78706     11.11513         0.383778     -0.683402     -0.691967
O      13.44840      7.66170     10.88462         0.620314      0.811298     -0.068912
O       2.04791     11.66323      2.36716        -0.441669      1.503194      1.271796
O       1.99713     11.79121     15.00414         0.138306      2.727384     -0.143714
O      13.39640     11.57344      2.56947         1.138818      0.945510     -0.307509
O      13.64413     11.74525     14.59400         0.321362     -2.171494      1.065815
O       1.87444     11.49631      6.75836         1.042445      1.196232      0.623703
O      13.24563     11.66879      6.72681         0.781421     -1.057072     -0.466127
O       1.64899     11.74907     11.12580         0.291986      0.247788     -1.132740
O      13.49083     11.68813     10.65392         0.146372     -1.030312      0.576158
O       5.99263      3.78931      2.29333        -0.251449      0.063142      0.405007
O       5.87072      3.70257     14.97184        -0.102383      1.628751      0.276710
O       6.13609     15.37991      2.67950        -1.130003      2.545157      0.287874
O       5.86846     15.54741     14.94989        -0.097596     -0.787439      0.715869
O       5.73114      3.93479      6.56112        -1.520042     -1.094489      0.001669
O       6.10121      0.04061      6.51442        -0.889749     -1.008301     -0.415023
O       5.86946      3.94079     10.74776        -1.017096     -3.035739     -0.303349
O       5.57488      0.02902     10.76346        -0.370157     -0.168502     -0.718388
O       5.86979      7.69230      2.47093        -0.116416      1.722273     -0.058077
O       5.72560      7.65226     14.79608         0.070473      2.323173      0.893591
O       6.07321      7.79449      6.22689        -0.282508      0.598601      0.595932
O       5.62897      7.64689     10.87158        -0.084514      1.111338      0.081528
O       5.95010     11.70778      2.30967        -0.327307     -0.588957      0.097372
O       5.79680     11.67225     14.79408         0.292372     -0.090684      0.292567
O       5.77822     11.66550      6.74755        -1.786153     -0.673346     -0.590963
O       6.03014     11.47718     10.80397        -0.951563      1.384346      0.409455
O       9.78345      3.77181      1.81984        -0.397405      1.137216      1.504278
O       9.61509      3.71776     15.05341         1.586506      2.077452      0.012664
O       9.92182      0.03654      2.18455        -0.383965     -3.760141      1.602603
O       9.60407     15.54126     14.56842         0.743597     -1.052319      0.332241
O       9.89119      4.02290      6.60217        -0.416658     -1.563290      0.347939
O       9.30836     15.59995      6.65982         0.833611     -1.324169     -0.507255
O       9.68564      3.86895     10.70084         0.797199     -1.317443      0.122305
O       9.58609      0.04323     10.78596         0.109051     -2.546770     -0.492358
O       9.56986      7.76879      2.39216        -0.150562     -0.801256      0.028436
O       9.91673      7.80206     14.70554        -0.298899     -1.209912      0.283282
O       9.59372      7.75874      6.40244        -0.040305     -2.012564      0.740832
O       9.79519      7.59752     10.69316         0.036347      1.396100      0.932819
O       9.65958     11.81867      2.46137        -1.239091     -3.061738     -0.680684
O       9.60216     11.69572     14.85490         0.088862     -1.405319     -0.155181
O       9.77109     11.66125      6.47599        -0.244618      0.104951      0.284981
O       9.56751     11.42335     10.83232        -0.686931      1.432034     -0.170795
