  # total energy = -7881.75948107 
CRSYTAL
PRIMVEC
    15.464    0.0000000000000000    0.0000000000000000
     0.0000000000000000   15.464    0.0000000000000000
     0.0000000000000000    0.0000000000000000   17.350608
PRESSURE
-0.402152 -0.599194 -2.24285 -0.085355 -0.097741 0.009793
PRIMCOORD
320 1
Pb       3.85894      3.55673      4.25762        -0.229994      0.763588     -0.264138
Pb       3.79166      3.71883     17.24597        -0.245373      0.296760      0.278171
Pb       4.01923     15.36766      4.29016        -0.649972     -0.118682      0.020446
Pb       3.82027      0.06625      0.04119        -0.418986     -0.268035     -0.030274
Pb      15.17525      3.82829      4.20309         1.441430     -0.119137      1.354287
Pb      15.40291      3.87802     17.31182         0.224056     -0.109926     -0.247412
Pb      15.30173     15.43653      4.22028         0.963120      0.213701      0.658858
Pb      15.34580      0.04224     17.33013         0.565755     -0.340713     -0.016168
Pb       3.90006      3.78065      8.61978        -0.254594      0.549043      0.206791
Pb       3.93176      0.04198      8.52632        -0.020476     -0.386878      1.093653
Pb       0.03718      4.03131      8.60699        -0.181470     -0.823014      0.003513
Pb       0.09063      0.08915      8.70194        -0.518038      0.151182      0.175431
Pb       3.88463      3.96990     13.03871        -0.506041     -0.687012      0.402318
Pb       3.78866      0.18653     12.92077        -0.634123     -1.070644      0.323622
Pb      15.29733      3.84418     13.01505         0.352472      0.019551     -0.257079
Pb      15.40393     15.32107     12.96336         0.265582      0.368848      0.792421
Pb       4.06008      7.64262      4.26888        -0.723159      0.132408     -0.129308
Pb       4.01523      7.85544     17.25668        -0.204700     -0.565399      0.654806
Pb       0.10497      7.76300      4.34648        -0.017323      0.288974     -0.160901
Pb       0.06232      7.77037     17.32912        -0.110520      0.023418      0.677743
Pb       3.64642      7.52528      8.63372         0.901324      0.723018      0.427114
Pb      15.25020      7.80101      8.68730         0.245713      0.509330     -0.314481
Pb       3.87343      7.79897     12.91648        -0.371829      0.252027      0.760791
Pb      15.39441      7.51175     12.94260         0.085119      0.416725     -0.170698
Pb       4.04191     11.47038      4.36444        -0.340064      0.125184     -0.186493
Pb       3.95778     11.57105     17.29334        -0.658167      0.382960      0.031788
Pb       0.00279     11.66687      4.29226         0.318799     -0.416995      0.477242
Pb      15.38756     11.61272      0.03965         0.262804     -0.240684     -0.313873
Pb       3.98163     11.48267      8.85314        -0.232393      0.055724     -0.656897
Pb       0.11835     11.72555      8.61112        -0.503785     -0.228579      0.099688
Pb       3.85928     11.61108     12.90383        -0.211102      0.692062      0.456520
Pb      15.45905     11.24057     13.10464        -0.293513      1.075860      0.136482
Pb       7.80752      3.77575      4.28142        -0.180371      0.328814      0.084689
Pb       7.66374      3.70420     17.25803         0.207206      1.164055      0.856790
Pb       7.70966     15.44535      4.27861        -0.258252     -0.353095      0.625963
Pb       7.69990      0.05191     17.29504         0.368942     -0.282235      0.554213
Pb       7.72700      3.81308      8.49858        -0.259194     -0.378066      0.819097
Pb       7.82763     15.26182      8.60959        -0.196107      0.624330      0.480691
Pb       7.76408      4.01069     13.03065        -0.152468     -0.755710     -0.376825
Pb       7.58495      0.06762     12.92348         0.681300     -0.500013      0.008907
Pb       7.82214      7.67575      4.27756        -0.511679      0.026721     -0.264392
Pb       7.76465      7.85865     17.30472        -0.436577     -0.261271      0.005963
Pb       7.64302      7.68404      8.63484         0.003222      0.157499     -0.521240
Pb       7.89164      7.80136     12.97029        -0.421707      0.150622      0.274627
Pb       7.75418     11.59213      4.41737         0.117204     -0.006764     -0.156781
Pb       7.71555     11.72456     17.28791         0.415848     -0.267079     -0.131991
Pb       7.94718     11.49937      8.62492        -0.060419      0.111241      0.015009
Pb       7.63601     11.62025     12.84071         0.403365      0.005382      0.665561
Pb      11.54022      3.83448      4.30094        -0.251483      0.294222      0.431482
Pb      11.49432      3.72812     17.18417         0.104690      0.255102      0.774645
Pb      11.52917      0.04601      4.36154         0.226363     -0.195000      0.060587
Pb      11.58151     15.31406     17.23154        -0.282132      0.109392      0.296027
Pb      11.44037      3.84877      8.63750         0.270956     -0.219121      0.077303
Pb      11.65229      0.01679      8.55859        -0.030616     -0.009348      1.235186
Pb      11.46030      3.89194     12.87398         0.028334     -0.492825      0.074908
Pb      11.39709      0.06727     12.94994         0.260188     -0.108956      0.032085
Pb      11.43820      7.70214      4.25647         0.762901     -0.200174      0.266250
Pb      11.42489      7.61785      0.04153         0.183741      0.474718      0.236408
Pb      11.43502      7.71121      8.56160         0.568281      0.289211      0.067357
Pb      11.60254      7.52113     12.91896         0.095621      0.800171      0.150330
Pb      11.56365     11.76387      4.32045         0.173753     -0.268465      0.136045
Pb      11.61821     11.63701      0.01810        -0.034902     -0.072717     -0.360787
Pb      11.78193     11.74414      8.73313        -0.174754     -0.180817     -0.244440
Pb      11.49469     11.50590     12.96079         0.258103      0.014261      0.262110
Ti       1.81310      1.89054      2.28630         0.732018     -0.805719     -0.859438
Ti       1.79781      1.86413     15.33079         0.616034      0.009321     -1.374304
Ti       2.02415     13.46945      2.41863         0.256901      0.441434     -1.115239
Ti       1.88420     13.52716     15.46670         0.433850     -0.109881     -1.985373
Ti      13.40733      1.91037      2.25191         0.000076     -0.120474      1.338500
Ti      13.43943      1.86905     15.30921         0.348566      0.163398     -0.771218
Ti      13.60526     13.55909      2.32989        -1.125880     -0.335293     -0.787131
Ti      13.55538     13.46237     15.24700         0.091113     -0.726325     -0.835644
Ti       1.88206      1.95546      6.56989        -0.867729      0.099768      0.048930
Ti       2.02885     13.58192      6.71203        -0.626341     -0.476004     -1.267378
Ti      13.45432      2.06545      6.71507         0.610062     -1.062106     -0.191553
Ti      13.62567     13.64933      6.73486        -0.059327     -0.555159      0.129091
Ti       1.84205      1.96116     11.09884         0.076104     -0.628590     -0.156150
Ti       1.78172     13.50820     11.05131         1.229588      0.317506     -0.204932
Ti      13.48188      1.97876     11.08374        -0.487731     -1.125491     -1.531460
Ti      13.48014     13.55652     11.11170         0.518489     -0.469978     -0.733507
Ti       1.90702      5.74212      2.33900         0.894501     -0.175568     -0.281460
Ti       1.89215      5.78905     15.40368        -0.220683     -0.617019      0.668098
Ti      13.45411      5.78846      2.27633         0.463642      0.097644      0.406034
Ti      13.44423      5.81333     15.47980         0.098816     -0.830866     -0.926527
Ti       1.91491      5.82379      6.55173         0.044971     -0.238808      2.550377
Ti      13.48255      5.84718      6.66236        -0.895678     -0.198403     -0.678997
Ti       2.00025      5.74001     11.03117        -1.348120      0.340112      1.001899
Ti      13.42805      5.78129     10.88995         0.808128      0.490148     -1.120821
Ti       1.96758      9.66152      2.34116         0.648116     -0.088375     -0.178285
Ti       1.94110      9.63080     15.43453        -0.438490     -0.027552     -1.487908
Ti      13.53035      9.65255      2.39256         0.190522      0.101577      0.345162
Ti      13.40711      9.49070     15.40081         0.335064      1.573443     -0.447647
Ti       1.90956      9.70903      6.77033        -0.360212     -0.407648     -1.255412
Ti      13.41770      9.68680      6.59494         0.854772      0.880243     -0.568228
Ti       1.85375      9.67604     11.10397         0.108989     -0.167520     -1.274892
Ti      13.45334      9.67495     11.00480         0.189815     -0.713237      0.275066
Ti       5.83835      1.92009      2.29319        -1.323681     -0.624500      0.220062
Ti       5.78582      1.89132     15.31505        -0.860271      0.437288      1.176174
Ti       5.84742     13.50366      2.29780        -0.203439     -0.372263      0.027886
Ti       5.73681     13.63882     15.37955        -0.200896     -0.493411     -1.183831
Ti       5.75027      1.92799      6.64841         1.150397     -1.331465     -1.627390
Ti       5.84924     13.42463      6.78843         0.223197      0.149568     -0.971863
Ti       5.75102      1.99906     11.02036         0.470109     -0.282019     -0.515645
Ti       5.79548     13.58584     10.98032        -0.960535     -0.330794     -0.845466
Ti       5.76731      5.65954      2.18555         0.108705      0.779707     -0.415259
Ti       5.69365      5.77333     15.33079         0.846893      0.072242     -0.226456
Ti       5.77047      5.71958      6.52259        -0.651131      0.494295      1.133088
Ti       5.77359      5.77402     11.07912        -0.067205     -0.183606     -2.161242
Ti       5.92790      9.64941      2.32246        -0.579804     -0.467003      0.131770
Ti       5.80387      9.71947     15.20282         0.407773     -0.503631     -0.606523
Ti       5.78909      9.54638      6.77602         0.129053      1.244297     -1.269641
Ti       5.80700      9.56577     11.03738        -0.198652      1.361075      1.207979
Ti       9.63435      1.86085      2.26805        -0.210676      0.493348     -1.435026
Ti       9.59935      1.88301     15.28069         1.231361      0.086039     -0.542976
Ti       9.68948     13.58107      2.34562         0.031333     -0.853683      0.026341
Ti       9.64551     13.48390     15.26835         0.386095     -0.099178     -1.087274
Ti       9.60303      1.86690      6.66628        -0.191490     -0.085769      0.001028
Ti       9.76623     13.51954      6.61900        -0.534467     -0.602072      0.017377
Ti       9.60212      1.88501     10.92209         0.341222     -0.271405     -0.113771
Ti       9.67972     13.41240     11.00601        -0.262271      0.776421     -0.846089
Ti       9.62629      5.73387      2.23263        -0.667754     -0.446617      0.895772
Ti       9.53762      5.79250     15.34892         0.945288     -0.205595      1.160062
Ti       9.58888      5.73625      6.60757         0.593393      0.032359     -1.670381
Ti       9.52525      5.77519     10.79577         1.504202     -0.663299      0.885965
Ti       9.72946      9.71445      2.33380        -1.084990      0.647687     -0.843740
Ti       9.65330      9.63337     15.32302         0.102638      0.405181     -0.706896
Ti       9.71759      9.64623      6.59496        -0.794449      0.381163      0.539598
Ti       9.67597      9.58355     10.97110         0.356190      1.110509     -1.441509
O       1.84832      1.78167      0.41642        -0.135221      0.480500      1.520157
O       1.95298      1.81446     13.47303        -0.631935      0.399715      1.360977
O       1.94969     13.45050      0.62190         0.373908     -0.220004     -0.033190
O       1.86909     13.61657     13.67491        -0.021194     -0.426220      0.801267
O      13.40931      1.90146      0.54044         0.167894     -0.044454     -0.887278
O      13.52160      1.83097     13.54507        -0.315759      0.479413      0.091021
O      13.42226     13.47760      0.54174         0.391126     -0.044933      0.814379
O      13.74784     13.33739     13.43458        -1.072139      0.494085      1.759207
O       1.88976      1.93069      4.81670         0.137602     -0.046924      0.247649
O       2.00115     13.55927      4.91126         0.120783     -0.159724      1.101895
O      13.39510      1.92530      4.90731         0.202939      0.159634      0.887399
O      13.53071     13.70075      4.98124         0.182512     -0.020637     -0.650912
O       1.89792      1.84897      9.34953         0.040709      0.445540     -0.154190
O       1.76944     13.57369      9.26265         0.191851     -0.266952      0.176327
O      13.48947      1.88963      9.29681        -0.264215      0.395374      0.647828
O      13.58175     13.52231      9.29316        -0.254599     -0.129871      0.700621
O       2.00678      5.55074      0.57749        -0.573922      0.406470      0.479262
O       1.84229      5.74316     13.66476        -0.062677      0.234448     -0.658543
O      13.56597      5.61536      0.52852        -0.223609      0.301290      0.687880
O      13.33403      5.89223     13.64348         0.585326     -0.210871      1.144230
O       2.00070      5.88865      4.89544        -0.096045     -0.098475     -2.297427
O      13.31301      5.66699      4.88773         0.554226      0.374946      0.544294
O       2.00688      5.81476      9.30858        -0.263332     -0.428969     -0.451618
O      13.48227      5.91829      9.06834        -0.037009     -0.295111      0.904797
O       1.92865      9.73215      0.55023         0.263858     -0.218847      0.701713
O       1.93963      9.52751     13.59532        -0.180569      0.232743      1.115914
O      13.67626      9.76998      0.65087        -0.488040      0.043398      0.142892
O      13.34738      9.39958     13.61099         0.461753      0.171480      1.218538
O       1.84242      9.56833      4.98087         0.368511      0.230357      0.545866
O      13.34411      9.63737      4.81422         0.287383      0.126319      0.326737
O       1.83896      9.76454      9.29965         0.078231     -0.298500      0.642156
O      13.39131      9.46486      9.26974         0.373733      0.357929     -0.666409
O       5.81015      1.88767      0.52402        -0.108443      0.023842     -0.188205
O       5.91761      1.84975     13.60963        -0.199315      0.045887     -1.260139
O       5.76879     13.68629      0.53240         0.226102     -0.703753     -0.052175
O       5.77116     13.74783     13.59375         0.170991     -0.325185      0.760412
O       5.70241      1.86783      4.76916         0.096926      0.167621      1.712328
O       5.78724     13.49376      4.96227        -0.046851     -0.139019      0.997049
O       5.84327      2.06351      9.26597        -0.377468      0.002379     -0.035033
O       5.86751     13.57091      9.16956        -0.059596     -0.287907      1.030816
O       5.90068      5.64579      0.33636        -0.733705      0.502283      1.704147
O       5.77650      5.71777     13.48503         0.223046      0.255881      1.530692
O       5.63195      5.69461      4.79260         0.598911      0.104883      0.492063
O       5.58715      5.73292      9.23645         0.841788     -0.042744      1.916381
O       5.93341      9.47349      0.54139        -0.090193      0.654186      0.119742
O       5.75868      9.58743     13.40557         0.233862      0.363944      1.297847
O       5.95531      9.73751      4.97671        -0.704883     -0.554256      0.693727
O       5.67843      9.62771      9.33004         0.368188     -0.010706     -1.367400
O       9.64522      1.84659      0.42708         0.125869      0.023274      1.839652
O       9.70783      1.99540     13.46941        -0.372108     -0.338855      1.262475
O       9.75530     13.60026      0.56460        -0.206657     -0.291411      0.426964
O       9.71051     13.39546     13.44208        -0.319367      0.286645      1.371051
O       9.58570      1.96142      4.90103         0.057121     -0.321516     -0.191796
O       9.66548     13.54725      4.83325         0.368465      0.119370      0.616093
O       9.52709      1.89947      9.15461         0.264863      0.194203     -0.115758
O       9.75533     13.33770      9.17213        -0.497613      0.067094      1.070933
O       9.70310      5.73781      0.48552        -0.401883      0.179437      0.286786
O       9.64426      5.95366     13.60640        -0.157982     -0.674204     -0.812120
O       9.62556      5.62014      4.72701        -0.190984      0.550288      1.739958
O       9.52994      5.68122      9.06000         0.041249      0.501896     -0.338796
O       9.62414      9.70818      0.50809        -0.253787     -0.159004      1.213628
O       9.72488      9.55680     13.49914        -0.340919     -0.040690      1.209425
O       9.64819      9.74343      4.82639         0.247408     -0.641715      0.034941
O       9.68956      9.72724      9.14540        -0.147832     -0.445447      1.269503
O       3.84548      1.86171      2.57621        -0.088864     -0.147004      0.255981
O       3.73832      1.96211     15.62895         1.236242     -0.391510      0.168065
O       3.95559     13.47288      2.76904        -0.412479     -0.058407      0.017571
O       3.83223     13.55301     15.74043         0.688269     -0.202074      0.417053
O      15.38256      1.83721      2.70030        -0.425712      0.406833     -0.501029
O      15.34321      1.75811     15.71940         0.151648      0.392279      0.033560
O       0.06398     13.48932      2.68021        -1.341190     -0.064891      0.244805
O       0.00156     13.50508     15.81137        -0.999284     -0.056416      0.079846
O       3.85399      1.81067      7.02445         0.188017      0.699702     -0.379530
O       3.95569     13.51055      7.25546        -0.943022      0.623522     -0.704444
O      15.37500      2.01884      7.11799         0.372676      0.536427     -0.438410
O       0.06901     13.58503      7.08428         0.088706     -0.331268     -0.138246
O       3.83815      2.09017     11.41813         0.647296     -0.740552     -0.146351
O       3.79180     13.48723     11.37374         0.749766      0.033706     -0.140391
O      15.35243      1.89232     11.38621         0.885681      0.410145      0.358677
O      15.40942     13.52850     11.48825        -0.056029     -0.031656     -0.639927
O       3.89761      5.75468      2.73671        -0.229116     -0.237256     -0.589912
O       3.82616      5.67697     15.69703         0.816021      0.092323     -0.203011
O       0.01932      5.72032      2.87315        -0.717676      0.166282     -0.912062
O      15.39667      5.85972     15.90013         0.122588     -0.215074     -0.679342
O       3.82409      5.78675      7.07750         0.394507     -0.237643     -0.525723
O      15.37294      5.71304      6.92148         0.533945      0.254064      0.079404
O       3.92574      5.71474     11.44290        -1.326568      0.373830      0.029557
O      15.37995      5.64826     11.30707         0.496566      0.508928      0.380518
O       3.95627      9.59972      2.74154        -0.625405      0.139722     -0.118342
O       3.91256      9.64141     15.73419         0.390873      0.180562     -0.005713
O       0.01758      9.69511      2.79664        -0.189475     -0.037576     -0.048320
O       0.02392      9.56237     15.78412        -0.682848     -0.013336     -0.307949
O       3.83151      9.60568      7.17204         0.325419      0.188154     -0.253019
O      15.38814      9.67114      6.97823         0.010419     -0.173301      0.513702
O       3.79125      9.74580     11.49484         0.386645     -0.539478     -0.552661
O      15.39645      9.59297     11.43111         0.316787     -0.561549      0.169005
O       7.64476      1.88287      2.65006         1.219152     -0.399155      0.194818
O       7.74326      1.96829     15.82669        -0.533451     -1.199421     -1.320668
O       7.76470     13.41596      2.75426        -0.492130      0.778607     -0.371527
O       7.80328     13.70682     15.83818        -0.866513     -0.884427     -0.615271
O       7.71700      1.87960      6.96353        -0.476903      0.340208      0.117921
O       7.83825     13.56398      7.02298        -0.617709     -0.791657      0.018648
O       7.81730      1.92582     11.47239        -1.579991      0.321966     -0.122079
O       7.67379     13.56742     11.42709         0.268533     -0.599479     -0.232056
O       7.72237      5.76217      2.68841        -0.186022      0.139743     -0.317192
O       7.74480      5.76660     15.71075        -0.886394     -0.018058     -0.484494
O       7.66419      5.71691      6.94291        -0.097037      0.333765     -0.049570
O       7.75730      5.71196     11.27891        -0.957968      0.205524      0.406506
O       7.76392      9.74799      2.80410         0.049509     -0.681409     -0.285958
O       7.76699      9.65366     15.63198        -0.950543     -0.239837      0.046519
O       7.76541      9.67057      7.12239        -0.484949     -0.579955      0.164641
O       7.75375      9.63313     11.33092        -0.663082      0.054763      0.140135
O      11.45978      1.93522      2.79151         0.860570     -0.255379     -0.739777
O      11.58652      1.97064     15.68003        -0.578496     -0.538609     -0.224424
O      11.61663     13.64213      2.79127        -0.340293     -0.297430     -0.166971
O      11.54809     13.38377     15.74002         0.156779      0.286569     -0.387322
O      11.52710      1.87474      7.13549         0.412094      0.335775     -0.372635
O      11.67337     13.60183      7.10139        -0.590883     -0.480210     -0.313360
O      11.51891      1.85721     11.46102         0.251691      0.543072     -0.210937
O      11.51689     13.27374     11.32701         1.091356      0.532645      0.213910
O      11.54422      5.69115      2.69552         0.079702      0.362775     -0.537025
O      11.58188      5.76912     15.92898        -0.114801      0.115194     -0.852023
O      11.44229      5.88015      6.94391         0.528930     -0.575982      0.429536
O      11.54997      5.76831     11.23022        -0.794324      0.174914      0.050538
O      11.55561      9.68983      2.65633         0.754405      0.021306      0.038119
O      11.50729      9.53710     15.86644         0.888308      0.675591     -0.365012
O      11.53689      9.72322      7.10334         0.388086     -0.519480     -0.329827
O      11.56791      9.58180     11.39397        -0.168887      0.094255     -0.081312
O       1.92404      3.70300      2.71329        -0.207990      0.925528     -0.168107
O       1.79243      3.80973     15.71867        -0.224119      0.059912      0.041861
O       1.87092     15.33586      2.64701         0.379196      1.382917      0.340320
O       1.85603     15.44807     15.71625         0.168895     -0.111719      0.518056
O      13.47219      3.82006      2.81211        -0.503570      0.029422     -1.316916
O      13.53482      3.79369     15.65494         0.179203      0.815646      0.151015
O      13.44111      0.02384      2.67531         0.299341      0.010671      0.044628
O      13.34328     15.31318     15.67523         0.675254      0.741431     -0.165500
O       1.98588      3.84337      7.11255        -0.291980      0.235673     -0.391371
O       1.77649      0.10040      7.00117         1.037157     -0.800200      0.221503
O      13.29512      3.91212      7.14769         0.557632     -0.027872     -0.352559
O      13.58312      0.03729      7.20603        -0.204647      0.544591     -0.543644
O       1.90559      3.86371     11.47281        -0.168265      0.365128     -0.054964
O       1.91405     15.41835     11.45256        -0.131636      0.609226     -0.177236
O      13.42390      3.86755     11.34879        -0.076104      0.213567      0.463294
O      13.40144     15.42580     11.47593        -0.032177     -0.454796     -0.149264
O       1.93517      7.66813      2.67262        -0.257926      0.373536     -0.002203
O       1.98538      7.64517     15.91303         0.106438      0.453106     -0.355817
O      13.49129      7.71214      2.65032        -0.093510     -0.369622     -0.096754
O      13.44152      7.72262     16.03233         0.187241     -0.448148     -0.643276
O       1.89174      7.71326      7.14958        -0.536726     -0.392431     -0.369785
O      13.40793      7.78558      6.96714         0.281147     -0.690174      0.204126
O       1.95034      7.72568     11.48935        -0.123762     -0.956713     -0.496911
O      13.51735      7.63906     11.38031         0.034401     -0.273024      0.046280
O       2.03084     11.54254      2.83476        -0.353703     -0.336355     -0.049858
O       1.97938     11.46736     15.74846        -0.170457      1.051815      0.152978
O      13.48102     11.73246      2.84465         0.194041     -0.992747     -0.350369
O      13.51959     11.57300     15.71241        -0.046110     -0.852323      0.143001
O       1.99692     11.64137      7.09452        -0.203326      0.020325      0.005951
O      13.52738     11.65210      7.01574        -0.086176     -0.312860      0.103201
O       1.79976     11.59575     11.50400         0.160983     -0.396091      0.055089
O      13.58938     11.50357     11.40467        -0.476265      0.122146     -0.104184
O       5.81755      3.82025      2.65760        -0.170627     -0.063392     -0.226618
O       5.83671      3.78241     15.69843        -0.294159      0.592338     -0.410394
O       5.75935     15.35390      2.76250         0.655888      0.951241     -0.262346
O       5.75304      0.01611     15.82788         0.149747      0.686998     -0.276964
O       5.83550      3.82249      7.02916        -0.824089     -0.155564     -0.425627
O       5.96738      0.00682      7.10354        -1.180015      0.183307     -0.156833
O       5.77923      3.86675     11.57508         0.723533     -0.050551     -0.416965
O       5.85726      0.04270     11.23630        -0.497088      0.372011      0.560110
O       5.78687      7.68065      2.76592         0.886264     -0.182796     -0.538959
O       5.76204      7.79290     15.64051         0.245200     -1.136363     -0.118351
O       5.79853      7.68895      7.09854         0.135315     -0.691612     -0.375240
O       5.79332      7.73602     11.39247         0.033761     -1.237005     -0.056139
O       5.79115     11.55024      2.63163         0.061473      0.103041      0.060256
O       5.84682     11.63880     15.67324         0.040580     -0.189443      0.012014
O       5.75686     11.52635      7.12842         0.233709      0.468763      0.167233
O       5.76224     11.59814     11.47798         0.140376      0.272609     -0.693388
O       9.49296      3.74722      2.70098         0.642884      0.584266     -0.681972
O       9.65901      3.79110     15.73572        -0.220478      0.764033     -0.609901
O       9.58067     15.45572      2.82930         0.097210      0.372760     -0.549201
O       9.73259      0.00013     15.65847        -0.061226     -0.091965     -0.409394
O       9.60904      3.78624      7.03501         0.296530      0.741065     -0.128375
O       9.69331     15.40174      7.06106        -0.017009      0.330028     -0.336933
O       9.69727      3.81605     11.24385        -0.153154      1.322927      0.222255
O       9.68271     15.36579     11.24753         0.006733     -0.012017      0.345589
O       9.62194      7.76167      2.73536         0.109978     -0.642639     -0.568198
O       9.64671      7.71300     15.76639        -0.046468     -0.225225     -0.059912
O       9.60240      7.65899      6.95860        -0.419510      0.560490     -0.080700
O       9.54305      7.72838     11.27969         0.328968     -1.420022     -0.314890
O       9.62343     11.64649      2.81805         0.811471     -0.293732     -0.631047
O       9.56934     11.59977     15.73508         0.158391     -0.259323     -0.164762
O       9.63514     11.55300      6.94539         0.236096      0.664436     -0.036549
O       9.63303     11.48588     11.44999        -0.478991      0.299474     -0.269701
