  # total energy = -7843.12281281 
CRSYTAL
PRIMVEC
    15.6080000000000005    0.0000000000000000    0.0000000000000000
     0.0000000000000000   15.6080000000000005    0.0000000000000000
     0.0000000000000000    0.0000000000000000   16.6239999999999988
PRESSURE
2.58322 1.38771 -3.32876 -0.097213 -0.079211 -0.248258
PRIMCOORD
320 1
Pb       3.79284      4.08512      4.17593        -0.282699      0.216100     -0.582691
Pb       3.83840      4.08211      0.19422         0.514321     -0.202570      0.311174
Pb       3.91532      0.10553      4.36967        -0.705415     -0.653944      0.067088
Pb       3.78844     15.41177     16.43553         0.554749     -0.216949      1.477938
Pb       0.01300      3.99522      4.22977         0.968837      0.083116     -0.636572
Pb       0.06081      3.75983     16.59000        -0.193482      0.914363      0.755128
Pb      15.59987     15.48674      4.44623        -0.321760      0.127302     -0.855267
Pb       0.29059     15.42198     16.60163        -0.798821     -1.246370      1.360368
Pb       3.91596      3.74350      8.34149        -0.504175     -0.042205     -1.001948
Pb       3.84316     15.59316      8.18588        -0.823134     -0.206867     -0.340770
Pb      15.42265      4.09270      8.18931         1.215903     -0.919781      1.282944
Pb      15.50804      0.23661      8.23534        -0.326231     -0.521574      0.718713
Pb       4.12858      3.85173     12.40752        -0.389272      0.267273      0.194409
Pb       3.86316     15.50765     12.36415        -0.165235      0.878731      0.874320
Pb      15.57131      3.63741     12.54449         0.009749      1.324134      0.158240
Pb       0.12401      0.16508     12.36681        -1.845118     -0.324617      1.039567
Pb       3.67895      7.84323      4.28517         0.740890     -0.184950     -0.688807
Pb       3.64050      8.03354      0.12216         0.240595      0.522269     -0.339794
Pb      15.45798      8.00801      4.12193         0.175355     -0.751492      0.614544
Pb       0.00093      7.89429      0.20560         0.799347      0.659446      0.050339
Pb       3.71743      7.92648      8.46222         1.155667     -0.520639     -0.113729
Pb      15.59963      7.51345      8.41690        -0.100220      0.472819      0.869230
Pb       3.90639      7.84009     12.59193         0.256841     -0.840700      0.592928
Pb       0.22383      7.54385     12.74742        -1.307627     -0.314757      0.138265
Pb       3.96531     11.67262      4.14662        -0.105489      0.438346      0.386315
Pb       3.86939     11.72156     16.50692        -0.944257     -0.312274      0.701078
Pb      15.47491     11.62750      4.57516        -0.791019      0.389398     -0.204001
Pb       0.05789     11.77702      0.05663         0.132010      0.715872     -0.011875
Pb       4.00540     11.70637      8.65367        -1.185102     -0.472657     -0.964180
Pb      15.56186     11.27104      8.38183        -0.651377      0.278059      0.576748
Pb       3.53495     11.81639     12.41496         0.136835      0.172155      0.413512
Pb      15.51898     11.69738     12.39663        -0.406196      0.213627      0.064631
Pb       7.71735      4.12295      4.32979        -0.271218     -0.296184     -1.407990
Pb       7.86026      3.64013      0.06612        -0.598134      0.810088      0.550263
Pb       7.56054      0.17767      4.00903         1.318828     -0.471137     -0.072835
Pb       7.77753      0.24664      0.11176        -0.232838     -0.325391      0.406457
Pb       7.96056      3.92824      8.68479        -0.229600     -0.440765     -0.800783
Pb       7.80768      0.23734      8.32012         0.918324     -0.230846     -0.260993
Pb       7.94541      3.69910     12.66366        -0.617803      0.194911     -0.276793
Pb       7.62791     15.29471     12.55801         0.231440      1.116076      0.267886
Pb       7.82418      7.72977      3.91127        -1.057760     -1.253579      1.971201
Pb       7.90602      7.93519     16.34901        -0.726633     -1.495508      1.167584
Pb       7.91890      7.68126      8.26537        -0.287074     -0.419302     -0.604233
Pb       7.62086      7.68255     12.67398         0.473207     -0.240623     -0.072290
Pb       7.60530     11.90901      4.28859         0.065473     -0.566409     -0.234592
Pb       7.55621     11.31026     16.60766         0.730707      0.792506     -0.430778
Pb       7.49755     11.91652      8.59435         2.167500     -1.022090     -0.366287
Pb       7.91358     12.03244     12.66059        -0.346044     -1.867764      0.095794
Pb      12.03666      4.05887      4.03760        -0.782025     -0.465510     -1.090758
Pb      11.91312      3.78916      0.11682        -0.685541      1.007112     -0.220367
Pb      11.73414      0.00405      3.96178         0.314524     -0.209107      0.929437
Pb      11.93619     15.54092      0.16735         0.250268     -0.275384     -0.109298
Pb      11.58128      3.94080      8.31216         0.085423     -0.391180      0.419338
Pb      11.37801      0.17634      8.19001         1.220749     -1.094872      1.435324
Pb      11.79318      3.93569     12.67999         0.589285      0.395681     -0.441976
Pb      11.72189      0.07226     12.23662         0.669865     -0.683272     -0.817075
Pb      11.71666      7.77283      4.06050         0.233166     -0.159764      0.164754
Pb      11.81180      7.73203     16.51583        -1.641084     -0.731253      1.631403
Pb      11.47154      7.83818      8.22319         0.237881     -1.318915      0.750551
Pb      11.75679      7.80451     12.33460        -0.582532     -1.046101      0.450326
Pb      11.63375     11.76233      4.36022        -0.157993     -0.465476     -0.398511
Pb      11.70254     11.67551      0.23438        -0.598876      0.105567     -0.567976
Pb      11.83011     11.15016      8.17284        -0.407140      1.867553      1.118406
Pb      11.45693     11.59349     12.24481         0.558086      0.881511     -0.218048
Ti       1.89715      1.87143      2.09175        -0.656940      0.389501      3.934925
Ti       2.16840      1.92887     14.73830        -3.257882      0.837379     -2.052295
Ti       1.93083     13.50878      2.40408         0.068847      1.894929     -1.146262
Ti       1.78533     13.66134     14.60801        -0.934375     -0.878542      0.066635
Ti      13.63033      1.83946      1.92740         2.726970      0.815616      2.792741
Ti      13.89570      1.82640     14.63648        -1.942465      0.863561     -1.365921
Ti      13.62100     13.53749      2.14386         3.224990      1.670784     -0.472220
Ti      13.45379     13.65997     14.24504         3.714108     -0.912868     -0.340869
Ti       1.97742      1.94832      6.21327         0.692962      0.149363      3.463351
Ti       1.82908     13.58831      6.40879         2.316700      0.793617     -0.071489
Ti      13.72131      1.93897      6.14367        -0.780102     -0.949095      1.522798
Ti      13.41126     13.76850      6.50220         1.113928     -0.650997     -0.088705
Ti       1.87782      1.98350     10.45448        -0.296810      1.607689     -2.560160
Ti       1.73177     13.82457     10.46016         1.199216     -1.912892     -1.988618
Ti      13.62491      2.05101     10.36875        -1.063716     -1.177808     -0.743095
Ti      13.79600     13.47770     10.30159        -3.341232      0.169087     -0.812197
Ti       1.88850      5.99350      2.24390        -0.203291     -1.693842      1.538140
Ti       1.93675      5.77270     14.90992         0.227508      0.740979     -0.258912
Ti      13.74820      5.90687      2.19257         0.596216     -0.245141     -0.285665
Ti      13.81962      6.03528     14.95427        -0.848076     -3.745045     -0.723309
Ti       2.08937      6.09566      6.47748        -2.963283     -1.502356     -0.024015
Ti      13.74631      5.84405      6.39686         0.634131      0.148202      0.372684
Ti       1.92921      5.76369     10.58854        -1.495678     -0.754869      0.375858
Ti      13.65996      5.83313     10.68854         0.125853     -0.320461      0.770591
Ti       1.85696      9.94935      2.41339         2.935017     -0.450059     -2.339217
Ti       1.73770      9.78120     14.60026         0.851488     -0.987524      1.975597
Ti      13.48302      9.83456      2.18512         2.601293     -1.857199      1.040622
Ti      13.47017      9.80480     14.89838         1.851747      1.898915     -1.381780
Ti       2.01112      9.85046      6.36880         0.364625     -0.223782     -0.845434
Ti      13.67594      9.51848      6.34597        -0.020489      0.842067      0.534664
Ti       1.99138      9.48432     10.71512        -1.860623      1.208887     -0.129037
Ti      13.65985      9.59820     10.73761         0.488458      0.960089     -0.509268
Ti       5.64779      1.83997      2.17691         0.959052      0.925878     -0.164916
Ti       5.87671      1.99692     14.63131         0.365471     -0.680071      2.054418
Ti       5.86123     13.54039      2.34235        -1.692867      1.061548     -0.400647
Ti       5.71436     13.59990     14.80859         0.581127      0.122866     -0.879923
Ti       5.90219      1.83500      6.26255        -0.480162      2.348064      0.878400
Ti       5.80840     13.56673      6.50175        -1.476247     -0.267997     -1.420392
Ti       5.79847      1.88949     10.27457         0.845093      0.814735     -0.314681
Ti       5.61436     13.57730     10.66969         1.259903      0.845548      0.381878
Ti       5.85863      5.77550      2.05904         0.264661      0.400636     -0.145842
Ti       5.80183      5.75869     14.66820         0.391406      0.034776      0.817410
Ti       6.04375      5.77848      6.33967        -0.391188     -0.576092     -1.624043
Ti       5.67426      5.87337     10.34867         0.637219     -0.913614      0.048490
Ti       5.88820      9.66716      2.19521        -2.040630     -1.098205      0.310003
Ti       5.74629      9.67492     14.47625        -0.944495      0.533221     -0.237563
Ti       5.91652      9.58692      6.25004        -0.545189      0.221063     -1.091131
Ti       5.91121      9.69682     10.50410        -0.369967     -0.810434     -0.126059
Ti       9.80522      1.90614      2.33955        -0.621619      1.798088     -0.281313
Ti       9.99891      1.84055     14.70047        -2.077363      0.861653      0.150728
Ti       9.81923     13.68814      2.02043        -2.018026      0.241291      0.371849
Ti       9.85528     13.77091     14.63025        -0.148903     -1.389910     -0.880791
Ti       9.75779      1.83982      6.30102        -0.397738     -0.256127     -0.671186
Ti       9.67284     13.49247      6.12335        -0.260389      1.711625      2.762826
Ti       9.67308      1.90923     10.73897         1.804425     -0.384606     -1.129588
Ti       9.62106     13.66576     10.48408         1.825016     -0.374811     -1.921579
Ti       9.81192      5.89335      2.11409        -1.109172     -2.274800     -0.915659
Ti       9.74760      5.62554     14.64306         0.599329      2.914043     -0.182018
Ti       9.84973      5.56781      6.13372        -1.749826      2.283035      0.579365
Ti       9.62695      5.85593     10.57444         3.001082     -1.162322     -0.143262
Ti       9.65292      9.63786      2.40940         2.699523      1.838236     -2.440270
Ti       9.74994      9.59201     14.52911        -1.541988      0.955428     -1.121112
Ti       9.63193      9.56451      6.29766         1.418392      0.395768     -0.416405
Ti       9.62075      9.61965     10.46137         1.038414      0.784953      0.353033
O       2.03315      1.85543      0.40987        -0.176570      0.361918     -4.224832
O       1.75761      1.95934     12.86781         0.881057      0.311859     -0.317195
O       1.79014     13.58741      0.14166         0.123031      0.434568     -1.748018
O       1.93329     13.65011     12.76523        -0.007822     -0.906500     -0.751845
O      13.35574      1.94044      0.17430         1.152642     -1.027453     -2.831379
O      13.59802      2.04109     12.75619         0.820062      0.159560      1.265069
O      13.97024     13.64524      0.23872        -1.632769      0.228492      1.660848
O      13.62508     13.27563     12.41993        -0.317708     -0.062350      1.243307
O       2.10018      1.76184      4.54105         0.429240      0.129097     -3.901557
O       2.07268     13.42979      4.33566         0.029865     -0.262881     -0.294725
O      13.73378      1.88003      4.40303        -0.662366      0.050122     -0.047027
O      13.67890     13.87469      4.30218        -0.347416     -0.919104      0.160724
O       1.93814      1.92332      8.55478         0.235401     -0.765506      2.382619
O       1.86913     14.04751      8.65066        -0.190218     -1.032643     -0.329529
O      13.59465      2.01103      8.54911         0.636196      0.087133      0.348372
O      14.01247     13.81080      8.45453        -0.497009     -0.587084      0.567575
O       1.81950      5.60819      0.27414         0.848975      1.119687     -1.211475
O       1.73356      5.93698     12.56908         0.915103     -0.473833      0.017182
O      13.92984      5.94649      0.32089        -0.913126      0.360540     -3.197412
O      13.77380      5.85948     12.56161        -0.102951     -0.038058      0.377979
O       1.63238      5.54067      4.24238         1.416753      1.362961      0.667746
O      13.82555      6.04534      4.08725        -0.211395     -1.920047      1.855163
O       2.07206      5.88439      8.52837         0.162841      0.616709     -2.361093
O      13.86437      5.91135      8.34937        -1.072633      0.434038     -1.776818
O       1.87780      9.61210      0.22961         0.289689     -0.117359      0.097464
O       1.97729      9.74421     12.65088         0.075792     -0.560928     -0.831855
O      13.65944      9.57764      0.09130        -0.508809      0.658322      0.538285
O      13.54081      9.90699     12.59681         0.208049     -0.022749     -0.212214
O       1.93990     10.09846      4.25745         0.142864      0.032466      1.381759
O      13.73435      9.82002      4.17855        -0.617325     -0.075654      0.792630
O       2.10542      9.46809      8.07485        -0.731628      0.393576      3.061776
O      13.74968      9.46126      8.31622        -0.226577      0.136174     -0.634953
O       5.72112      2.02893      0.44889         0.592889     -0.137613     -1.732989
O       5.70749      2.05139     12.93605         0.493011      0.307303     -2.808123
O       5.86647     13.44373     16.53618         0.509870      0.366983      1.228191
O       5.54537     13.48898     12.49138        -0.062010      0.473678      0.151878
O       5.82384      1.90430      4.45079        -0.178418     -0.436432     -0.875021
O       5.46981     13.50556      4.27364         1.949661      0.213204     -0.783091
O       6.01455      2.19226      8.43819        -0.632850     -1.927136      2.087271
O       5.79226     13.32441      8.36396        -0.670247      1.413806      1.228869
O       5.89364      5.90114      0.24616        -1.028466     -0.567814     -0.096817
O       5.86872      5.62955     12.81013         0.093735      0.156388      0.390349
O       6.11881      5.76431      4.35170        -1.029803     -0.263588      1.791426
O       5.83090      5.87791      8.47517        -0.157059     -0.362979      1.748839
O       5.90178      9.64963      0.30421         0.529868      0.098835      0.742758
O       5.67956      9.83688     12.65837        -0.156661     -1.116371     -0.547602
O       6.11147      9.57441      4.37848        -0.955781      0.418624      0.470596
O       5.74325      9.58649      8.68609         0.051030      0.247321     -0.201032
O       9.72907      2.18335      0.25027         0.901478     -1.285614     -1.119192
O       9.85974      1.67304     12.58502        -0.954167      0.657165      1.287013
O       9.70940     13.86271      0.20573         0.139282     -1.243953     -0.734822
O       9.55770     13.85861     12.66950         0.770825     -0.568644      1.291594
O       9.64877      1.46767      4.24438         0.576879      1.512701      2.027242
O       9.91404     13.76035      4.41502         0.051484     -1.114633     -1.435374
O       9.77786      1.82361      8.46723        -1.034182      0.428875     -0.329470
O       9.62426     13.36525      8.72824        -1.101931      1.230588     -0.385046
O      10.09465      5.88048      0.29424        -1.749529     -0.597900      0.654578
O      10.02576      5.89823     12.74145        -0.894475     -0.648958      0.926829
O       9.72974      5.91698      4.39594         0.812920     -0.831055     -0.941461
O       9.66680      5.55690      8.68360         0.424959      1.009212      0.379909
O       9.66806      9.59805      0.29454        -0.409443      0.520553      0.045906
O       9.72987      9.42835     12.53279         0.232516      0.838441      1.642233
O      10.08111      9.71301      4.41744        -0.463044     -0.519795      1.038119
O       9.75801      9.55412      8.48589         0.149601     -0.202014      0.626976
O       3.87777      1.87759      2.35155        -0.541498     -0.397485      0.764085
O       3.85487      1.80326     14.83942         1.490761      0.182159      0.390164
O       4.08562     13.50359      1.95443        -0.010751      0.823697      0.287826
O       3.68930     13.62858     14.81931         1.775810      0.042563     -0.278983
O      15.51050      2.06376      2.47589         1.294062     -0.384267     -1.157067
O       0.10750      1.79882     14.97928        -2.068086      0.687129     -0.192387
O       0.15273     13.56708      2.05726        -1.416284     -1.007091      1.750695
O      15.35781     13.58454     14.55407         1.491988     -0.500691      0.222834
O       3.93985      1.73713      6.73917         0.050873      1.022665     -0.689651
O       3.93600     13.45497      6.38200        -0.157150     -0.424723      0.805067
O       0.14986      1.56326      6.32227        -2.215416      0.897814     -0.003046
O       0.12183     13.79540      6.16621        -1.986998     -0.361328      0.314448
O       3.93877      1.91701     10.69588        -0.801605     -0.192645     -0.299681
O       3.61164     13.88550     10.81416         2.414081     -1.085111     -1.326382
O      15.57414      2.14269     10.71589         1.472302     -0.320700      0.043516
O      15.56368     13.65983     10.86016        -0.027068     -0.528231     -0.044102
O       3.77897      5.99568      2.44311         1.075975     -0.083282     -0.194020
O       3.72099      5.80334     14.69648         2.003383      0.322417      0.151536
O       0.07548      5.68883      2.01996        -1.399260     -0.286801      1.250552
O       0.08497      5.77430     14.62657        -1.601782      0.228515      0.595312
O       3.76849      6.02865      6.18909         2.216346     -0.595121     -0.213550
O       0.10711      5.82080      6.41411        -2.263069     -0.412224      0.325552
O       3.84597      5.63586     10.87176         2.067401      1.367569     -0.918583
O       0.02695      5.83268     10.38087         0.017776      0.731569     -0.016599
O       3.93978      9.48449      2.26715         1.865346      0.115579      0.363282
O       3.83754      9.48725     14.85192         0.419193      0.408036     -0.372969
O       0.19484     10.12408      2.20281        -3.639802     -0.050750      0.034041
O      15.50143      9.76274     14.79922        -0.650122      0.587793     -0.589858
O       4.03982      9.61385      6.35830        -1.031459      0.353149     -0.449817
O      15.46205      9.74144      6.23879         2.346853      1.385298      0.111642
O       3.83078      9.26984     10.62477         0.767056      1.905922     -0.342254
O       0.05850      9.79782     10.59732         0.766146     -0.894531     -0.045391
O       7.91604      1.87506      2.13136        -0.672557     -0.314276      0.501917
O       7.79880      1.83686     14.76531        -0.129123      0.692497      0.344146
O       7.79265     13.84629      2.33493         1.442205     -1.585953      0.201315
O       7.55003     13.66466     14.24709         0.613080      0.372984      1.229287
O       7.83081      1.98461      6.38806        -0.160355     -1.507363      0.247011
O       7.66003     13.66793      6.27168         1.556304     -0.383191     -0.106666
O       7.77392      1.99776     10.49221        -0.205070     -0.363859      0.551225
O       7.55227     13.53400     10.74868         0.660244      0.539140     -0.371661
O       7.85851      5.69273      2.31539         1.828420     -0.417708     -0.252716
O       7.75890      5.75018     14.89242         0.919125     -0.685046     -0.678161
O       7.85886      5.83905      6.27913        -0.126679     -0.918347      1.203607
O       7.88737      5.84718     10.66644        -2.564205     -0.413667      0.371804
O       8.01383      9.97477      2.66229        -3.709925     -0.930828     -0.645143
O       7.65317      9.71591     14.51453         1.112792     -1.079227      1.198812
O       7.88523      9.43721      6.46292        -0.223987      0.277182      0.272223
O       7.80347      9.76973     10.50881        -0.296142     -0.392385      0.224932
O      11.87442      1.67035      2.39615        -3.161550      1.709231     -0.011050
O      11.70209      2.09764     14.80129         0.706301     -0.645231     -0.266676
O      11.82300     13.72966      1.95755        -1.901955     -0.724063      0.382614
O      11.73207     13.39320     14.66194        -4.677801      0.780046      0.700526
O      11.75459      1.85467      6.58465        -1.265341      0.642412     -1.356013
O      11.61461     13.67529      6.63455         0.519262     -0.013505     -0.579031
O      11.63648      1.73735     10.68402         1.333776      1.705268     -0.480128
O      11.78668     13.53951     10.61455         0.709247     -0.063890      0.055672
O      11.79301      5.82879      2.34868        -0.101693      0.630281      0.577662
O      11.75079      5.98708     15.08014         0.473006     -1.121912     -1.701763
O      11.64517      5.60137      6.39433         3.065974      0.462181      0.153719
O      11.78436      5.79164     10.68598        -0.337340      0.450925     -0.314983
O      11.79845      9.56058      2.24194        -1.887452     -0.198117     -0.066204
O      11.50135      9.26981     14.86158         2.334565      1.585069     -0.797248
O      11.70854      9.36370      6.55533        -0.111614      0.910725     -0.728550
O      11.69493      9.94513     10.55221         0.195163     -1.042063     -0.197528
O       2.14313      3.84835      2.44356        -0.391755     -1.182893     -0.700751
O       2.04564      3.88264     14.90862        -0.604901     -1.493941      0.221771
O       1.90996     15.44688      2.12830         0.572591      1.257241      0.832176
O       1.69998     15.49402     14.57245         1.135524      1.204109      1.434990
O      13.50847      3.82548      1.93612        -0.095515      0.920008      1.391324
O      13.65467      3.95729     14.72772         0.494126     -0.958508      0.854186
O      13.53170      0.03011      2.21539         1.336451     -2.310405     -0.523423
O      13.32115     15.48573     14.47395         0.826986      1.839471      0.945039
O       1.90480      3.73762      6.52191         0.484822      1.380440     -0.240550
O       2.13756     15.44634      6.38563         0.594146      0.125306      0.266532
O      13.66471      3.81615      6.57249         0.511665      1.191998     -1.185026
O      13.68240      0.02161      6.61446        -0.038996      0.371477     -0.774873
O       1.88935      3.99080     10.35619         0.573106     -3.395698      0.795072
O       1.67095      0.02869     10.79905         1.226649      1.856614     -0.282154
O      13.77027      4.03663     10.40860        -0.536937     -1.928833      0.382134
O      13.86798      0.23322     10.64418        -0.130402     -1.484920      0.238846
O       1.70420      7.82402      2.67746         0.899107      0.422416     -1.353364
O       1.74576      7.85804     14.87846         0.186428     -1.200090     -0.438784
O      13.90819      7.84552      2.29919        -0.186699      0.528704     -0.722140
O      13.76332      7.75871     14.66570        -0.118874      1.941843      0.206084
O       1.77570      7.94237      6.10061         0.740670     -1.369861     -0.141698
O      13.93134      7.77527      6.00788        -1.554419     -2.109542      1.204946
O       2.05000      7.60910     10.38821        -0.723499      3.422036      0.449404
O      13.78912      7.76885     10.64141        -0.514216      1.509699     -0.328053
O       2.40367     11.77933      1.95413        -0.788729     -1.970885      1.098736
O       2.05643     11.58447     14.89722        -0.652645      0.472246     -0.865212
O      13.49660     11.62598      2.43319        -0.157205      2.124045     -1.076954
O      13.43799     11.77421     15.09501         0.062431     -3.161036     -0.794706
O       1.81098     11.71030      6.83656         0.516913     -0.379040     -1.209334
O      13.63785     11.86187      6.57195         0.089437     -1.177198     -0.611927
O       2.02215     11.71111     10.40803         0.561105     -0.735210      0.551726
O      13.87926     11.52283     10.06616        -0.484565      1.418368      1.192111
O       5.83681      4.01483      2.44602        -0.635173     -3.025681     -0.032990
O       5.79605      3.84820     15.16974        -0.391497      0.071746     -1.028450
O       5.96324     15.50716      2.05947        -0.643178      0.733321      0.902719
O       5.68387      0.09905     14.83857         0.307489     -2.102132      0.194256
O       5.74571      3.78474      6.56496        -0.167784      0.834607     -0.730169
O       5.66064     15.53146      6.42931         0.950150     -0.415467      0.355621
O       5.78634      3.90393     10.67559         0.354835     -0.403404     -0.390361
O       5.91779     15.56181     10.56356        -0.858232      0.298722     -0.156257
O       6.15015      7.52193      2.46650        -0.627485      4.554752     -0.565534
O       5.80592      7.64575     14.81347         0.311807      0.991777     -0.967455
O       5.93909      7.56966      6.42743        -0.263570      2.690084      0.585235
O       5.94223      7.71853     10.78104        -0.251104     -0.355714      0.165693
O       5.99927     11.56958      2.32165         0.022793     -0.152134      0.028317
O       5.81010     11.57109     14.72497        -0.385196      0.499442      0.254348
O       6.08479     11.50611      6.38413        -0.185740     -0.013200     -0.016485
O       5.78934     11.62466     10.43937        -1.331168      0.510103      0.294554
O       9.95483      3.79574      2.55239         0.441808      0.041357     -0.079712
O       9.65308      3.78828     14.42059         0.330239     -0.390568      0.518687
O       9.84044     15.55639      2.32596         0.503977     -1.468115     -1.001714
O       9.71568     15.58766     14.77676         0.539772     -0.579890      0.238693
O       9.54463      3.81415      6.58896         1.131192     -1.624795     -0.510461
O       9.68953     15.43208      6.54825        -0.353934      1.616628      0.457176
O       9.86591      3.79709     10.69549        -0.718546      0.040530      0.503611
O       9.98923     15.53407     10.49441        -1.909143      0.163406      0.155565
O       9.63489      7.72608      2.41282         1.056545      0.521457     -0.216847
O       9.54381      7.57375     14.83809         0.110367      1.659091     -0.752811
O       9.76082      7.46111      6.64907         0.234417      2.246660      0.242437
O       9.84168      7.71489     10.74635        -0.177307      1.114159     -1.365653
O       9.89931     11.56128      2.48238         1.031781      2.407876     -0.525002
O       9.59133     11.54555     14.59834         0.483593      0.299439      0.269019
O       9.88591     11.68640      6.54565        -0.441458     -1.881858     -1.230424
O       9.70085     11.79871     10.70239        -0.384016     -2.429141      1.025922
