  # total energy = -7882.55907851 
CRSYTAL
PRIMVEC
    15.464    0.0000000000000000    0.0000000000000000
     0.0000000000000000   15.464    0.0000000000000000
     0.0000000000000000    0.0000000000000000   17.350608
PRESSURE
0.195578 0.221092 2.77925 0.522991 0.029778 0.018363
PRIMCOORD
320 1
Pb       3.85631      4.08729      4.36449         0.331665     -0.581185     -0.106943
Pb       3.84327      3.92564      0.07082        -0.050419     -0.598427     -0.311279
Pb       3.70934     15.43664      4.31576         0.716428      0.297950     -0.445447
Pb       3.79593     15.35485     17.31182         0.349267      1.080976      0.599730
Pb       0.14942      3.87911      4.31705        -0.154306     -0.041769      0.459195
Pb      15.45872      3.86827     17.31779         0.047337     -0.484592     -0.314809
Pb       0.05043     15.41915      4.32068        -0.419548      0.456322     -0.591056
Pb       0.04625     15.42827     17.29544        -0.581313      0.562855     -0.256564
Pb       3.88998      3.86036      8.63161         0.044885      0.428036     -0.189281
Pb       3.79016     15.42351      8.63831         0.537452     -0.018964     -0.134100
Pb      15.46017      3.76499      8.69746         0.242206      0.535920     -0.112340
Pb      15.37657     15.36692      8.54727         0.235827      0.505532      0.744653
Pb       3.93512      3.70705     12.91881        -0.718403      0.697900      0.320279
Pb       3.90557     15.31288     12.96290         0.204287      0.586233      0.442771
Pb       0.05392      3.77556     12.91092         0.235521      0.710827      0.380444
Pb       0.03820      0.05125     12.98658        -0.185347      0.062264      0.304395
Pb       3.70690      7.76309      4.33513         0.871055     -0.068963      0.252513
Pb       3.73777      7.62381     17.34436         0.284529      0.504177     -0.549397
Pb      15.42826      7.72370      4.28261        -0.031531     -0.211464      0.472515
Pb      15.38275      7.66866     17.22959         0.373157     -0.026459      0.127269
Pb       3.95161      7.81043      8.62782        -0.047113     -0.387803      0.209751
Pb       0.06057      7.64761      8.66338        -0.800245      0.477977      0.189301
Pb       3.87382      7.69796     12.91640        -0.353420     -0.087199      0.292538
Pb       0.00658      7.81065     13.01992         0.053257     -0.692734     -0.328347
Pb       3.65935     11.57814      4.22410         1.419550      0.024404      0.424218
Pb       3.79535     11.57838     17.29473         0.523620     -0.112591     -0.085575
Pb      15.36966     11.49263      4.21563        -0.076771      0.259820      0.346850
Pb       0.01038     11.55731     17.25655        -0.114703      0.059171     -0.494078
Pb       3.77291     11.62410      8.46054         0.278823     -0.496673      0.909486
Pb      15.34169     11.49618      8.67904         0.477370     -0.237453      0.295887
Pb       3.85028     11.55190     12.94580         0.373319     -0.590825      0.005166
Pb      15.37009     11.70197     12.97174        -0.165605     -0.627483      0.045652
Pb       7.65400      3.93109      4.26555         0.277746     -0.233457     -0.296666
Pb       7.70838      3.95713     17.34344         0.464936     -0.551294      0.287930
Pb       7.68410     15.41654      4.29690         0.051024      0.268636     -0.058345
Pb       7.68042     15.43414     17.34581         0.018029      0.822601     -0.121900
Pb       7.71189      3.81510      8.70392         0.311032      0.438150     -0.884173
Pb       7.64944      0.05924      8.61948        -0.111841     -0.071509     -0.082981
Pb       7.67264      3.71470     12.92350         0.280557      0.298006      0.120035
Pb       7.75356     15.34265     12.96964        -0.076796      0.533351      0.169917
Pb       7.60877      7.70610      4.27740         0.423999      0.184859      0.521143
Pb       7.67662      7.57974     17.30334         0.095967      0.394014     -0.203464
Pb       7.78415      7.69922      8.65319         0.535997     -0.380582      0.186164
Pb       7.59112      7.66485     12.92128         1.068483     -0.106690     -0.110603
Pb       7.65380     11.56423      4.14409         0.202868      0.218308      0.996745
Pb       7.69178     11.45895     17.31539        -0.169635      0.436084      0.062512
Pb       7.53329     11.62685      8.62954         0.439316     -0.032459     -0.186773
Pb       7.75971     11.59618     13.01842        -0.235922     -0.501909      0.081294
Pb      11.64677      3.85594      4.24803        -0.958285      0.078892     -0.317456
Pb      11.65511      3.91705     17.34095        -0.397839      0.051000      0.322592
Pb      11.61883     15.42229      4.17780        -0.239027      0.300450     -0.047276
Pb      11.60379      0.13805      0.00502        -0.063948     -0.295774      0.198273
Pb      11.68207      3.77468      8.64017        -0.855261      0.562786     -0.352406
Pb      11.57755     15.43660      8.65762        -0.385632      0.423935     -0.543043
Pb      11.72748      3.71612     13.02399        -0.329353      0.913252      0.328425
Pb      11.74351     15.36107     12.98939        -0.723384      0.254470      0.397218
Pb      11.62678      7.77350      4.28147        -0.543915     -0.496572     -0.075208
Pb      11.65077      7.77602     17.22589        -0.467689     -0.577343      0.453287
Pb      11.70879      7.71443      8.64964        -0.718850     -0.417686     -0.201181
Pb      11.57969      7.85737     13.01592        -0.651948     -0.943206     -0.579199
Pb      11.54584     11.45886      4.19275        -0.201524      0.516662      0.135956
Pb      11.57566     11.48804     17.28633        -0.243255      0.549600      0.068689
Pb      11.54313     11.45604      8.61022        -0.296636      0.023283     -0.144116
Pb      11.60890     11.60685     13.03190        -0.049354     -0.295388      0.008439
Ti       1.89105      2.01118      2.33401         0.582141     -0.532014      1.230835
Ti       1.97092      1.86299     15.32283        -0.715389      0.846760      1.862006
Ti       1.87436     13.46971      2.30164         1.366296      0.846253      0.663787
Ti       1.90648     13.44478     15.32375         0.311601      0.929693      0.390139
Ti      13.50877      1.98565      2.33452         0.137768     -0.954949     -1.519514
Ti      13.52545      1.96246     15.34265         1.171652     -0.958749     -0.360127
Ti      13.58362     13.50393      2.32052        -1.374715      0.874022      0.557693
Ti      13.45463     13.48422     15.40760         0.180375      0.800213      1.705627
Ti       1.86438      1.92223      6.74818         0.976850      1.306216     -0.491133
Ti       1.86122     13.48406      6.63817         0.683891      0.078140      2.193996
Ti      13.51410      1.97966      6.62813        -0.955261     -0.189638      1.319958
Ti      13.47355     13.51100      6.64380        -0.047776      0.442269     -1.058909
Ti       1.94611      1.85798     11.00102        -0.613518      0.598957      0.090494
Ti       1.90857     13.43293     11.14528        -0.201250      0.965449     -1.097827
Ti      13.52670      1.94142     11.01511         0.322390      0.145156      1.500861
Ti      13.50727     13.56839     10.94293         0.025618     -0.541523      1.578777
Ti       1.88660      5.87203      2.32644         0.858604     -0.645243     -0.948167
Ti       1.90898      5.73536     15.33273         0.588843      0.208822     -1.657080
Ti      13.57765      5.78736      2.42343        -1.457279     -0.064239     -0.060357
Ti      13.53836      5.77005     15.22313         0.196630      0.008114      1.383355
Ti       1.92947      5.88626      6.83999         0.288557     -1.637322     -0.980270
Ti      13.52897      5.81712      6.60497        -0.067076      0.136329     -0.208149
Ti       1.92652      5.80915     10.99175        -0.128196     -0.790319      2.163307
Ti      13.52546      5.79105     10.99791        -0.012681      0.873163      1.287928
Ti       1.94969      9.62694      2.31933         0.415540     -0.030838     -0.331877
Ti       1.92683      9.60409     15.27527         0.632388     -0.426272      0.075215
Ti      13.61731      9.63059      2.26439        -1.384390     -0.110587      1.944365
Ti      13.51261      9.59113     15.27867        -0.000296      1.045772      1.654421
Ti       1.87276      9.62722      6.58511         0.129631      0.110712      1.635424
Ti      13.54053      9.67894      6.63499        -0.585129     -0.826078      1.385061
Ti       1.87042      9.60956     11.02526         0.318153      0.121243      0.324228
Ti      13.46748      9.64915     11.01967         1.063014     -0.441807      0.745399
Ti       5.66241      1.89276      2.30342         0.789484      0.792904     -0.190257
Ti       5.77579      2.02295     15.43512         0.448195     -1.630669      0.719853
Ti       5.76511     13.53507      2.27518        -0.258947      0.169827      0.292930
Ti       5.81514     13.56198     15.47158        -0.124242      0.552016      1.065646
Ti       5.67700      1.89954      6.55497         0.505568      0.894716      1.281850
Ti       5.78298     13.49229      6.60259         0.202044      0.376793      0.786460
Ti       5.75262      1.88599     10.98744         1.039317     -0.634264      0.421127
Ti       5.80581     13.51324     10.89630        -0.492354     -0.043888     -0.160314
Ti       5.73667      5.92198      2.30263         0.263385     -1.540407      2.529605
Ti       5.74118      5.78477     15.29844        -0.320985      0.557171     -0.166633
Ti       5.85106      5.83876      6.69878        -0.147224     -0.783799      1.210874
Ti       5.76865      5.78899     11.01273         0.360606     -0.397300     -0.442462
Ti       5.82365      9.69419      2.22342        -0.685590      0.010662      0.311939
Ti       5.71982      9.66566     15.34962        -0.193608     -0.089875      0.451190
Ti       5.75527      9.64770      6.63850         0.471298      0.045418     -0.455068
Ti       5.79249      9.67346     10.99238        -0.146292      0.302962      1.401509
Ti       9.50095      1.96774      2.33853         1.335485      0.524724      0.286698
Ti       9.72048      1.98280     15.38317        -1.524909     -0.457969      2.234691
Ti       9.61347     13.54631      2.33940         0.767816      0.264344      0.071767
Ti       9.63905     13.56285     15.48682         0.015830      0.084493      0.344249
Ti       9.57934      1.87327      6.62012         0.336806      1.610796     -0.916630
Ti       9.66781     13.53158      6.64745        -1.251973      0.209766      0.500322
Ti       9.80924      1.87723     11.04628        -1.985015     -0.096386      0.525454
Ti       9.67034     13.37861     11.05360        -0.395233      0.976583     -0.600004
Ti       9.60018      5.87470      2.34958         1.351024     -1.486658     -0.885166
Ti       9.66681      5.79025     15.30731        -0.228686      0.280835     -0.420223
Ti       9.73542      5.77406      6.67462        -0.751927     -0.280575      0.074093
Ti       9.71488      5.67769     11.03183        -0.382628      1.930386     -1.328312
Ti       9.61548      9.61470      2.31896         0.844747     -0.060331      1.030265
Ti       9.55921      9.62979     15.44524        -0.003250      0.189443     -0.356550
Ti       9.54878      9.71205      6.69542         0.356411     -0.993259      0.000621
Ti       9.65310      9.62959     11.01926        -0.590625     -2.002785      0.891267
O       1.84042      2.00851      0.64405        -0.144908      0.075888     -1.597617
O       1.98077      1.93966     13.63068        -0.189970     -0.184621     -2.463907
O       1.85858     13.52563      0.60747        -0.162956     -0.482419     -1.803625
O       1.95066     13.49595     13.56982        -0.029705      0.156731     -0.879291
O      13.64529      1.86398      0.53037        -0.254959      0.364925      0.134559
O      13.55874      1.96707     13.53153        -0.510926     -0.122491      0.308546
O      13.61213     13.60063      0.60169         0.185803     -0.496818     -0.907159
O      13.40939     13.45826     13.71417        -0.054342      0.128893     -2.386604
O       1.95286      2.02837      4.98117        -0.429102     -0.229620     -0.468285
O       1.99451     13.55674      4.97272        -0.426971      0.021616     -2.484268
O      13.52027      2.04416      4.93797         0.366913     -0.011828     -1.526180
O      13.55533     13.52788      4.84393         0.136987     -0.143353      1.163478
O       1.82762      2.00954      9.26471         0.280113     -0.466114     -0.534551
O       1.87595     13.52469      9.38977         0.121545     -0.331966     -0.262849
O      13.44060      1.94430      9.31447         0.062112     -0.059580     -1.763819
O      13.53547     13.55343      9.23933        -0.109364      0.017138     -1.442329
O       1.93156      5.80392      0.55311        -0.271626      0.271510      0.081206
O       2.05807      5.72631     13.56219        -0.176127      0.037637      0.310730
O      13.64108      5.89993      0.70788        -0.024118     -0.150065     -1.415524
O      13.44596      5.95220     13.54945        -0.021310     -0.378661     -1.387493
O       2.01601      5.84831      5.05358        -0.060486      0.088804     -0.463316
O      13.51398      5.76348      4.81567        -0.018712      0.042395     -0.295849
O       1.88097      5.75004      9.29090        -0.392396      0.384419     -2.643531
O      13.53708      5.85298      9.27352         0.020896     -0.056502     -1.137030
O       1.98370      9.50462      0.59252        -0.260333      0.547961     -0.718820
O       1.99541      9.59125     13.53526        -0.110502      0.311578     -0.482550
O      13.57696      9.63090      0.58250        -0.005480      0.085231     -2.260710
O      13.51039      9.69147     13.58367        -0.254202     -0.160598     -1.588163
O       1.88727      9.54870      4.86518        -0.108936      0.137752     -1.281546
O      13.54522      9.72996      4.93193         0.257030      0.052538     -1.813809
O       1.75332      9.71686      9.28041         0.216696     -0.259294     -0.389505
O      13.70180      9.68395      9.30620        -0.551011      0.022260     -1.593257
O       5.63897      1.95513      0.55263         0.282850      0.092213     -0.320578
O       5.77938      1.92600     13.69596        -0.307946      0.251125     -1.271282
O       5.77717     13.48695      0.51778         0.121796      0.129071     -0.082598
O       5.83051     13.72661     13.76136        -0.207312     -0.401296     -1.561531
O       5.71451      1.90308      4.84448        -0.050211     -0.000231     -1.225197
O       5.76033     13.51338      4.88091         0.007375      0.117772     -0.847639
O       5.78909      1.73893      9.27987        -0.096647      0.667545     -1.304593
O       5.80571     13.66717      9.13809        -0.145690     -0.744925     -0.036404
O       5.78132      5.89889      0.64044         0.027262     -0.093906     -3.211627
O       5.67891      5.74954     13.52470         0.039146     -0.024792      0.265862
O       5.71730      5.84538      4.98487         0.076019      0.203428     -1.998616
O       5.83985      5.76001      9.27790        -0.035463      0.020300     -1.294477
O       5.78885      9.75307      0.46650        -0.159510     -0.194424      0.619210
O       5.71392      9.75958     13.59282         0.074447     -0.113095     -0.700165
O       5.84308      9.66877      4.90469        -0.096070     -0.077876     -0.643715
O       5.71693      9.81064      9.30771         0.096986     -0.579615     -2.196109
O       9.60879      1.94526      0.60368         0.223269     -0.023295     -1.226179
O       9.73424      2.16502     13.71816         0.081713     -0.252411     -2.669244
O       9.63539     13.55327      0.62412        -0.172538      0.018373     -1.194673
O       9.53882     13.51573     13.74737         0.349561     -0.291672     -1.558429
O       9.59890      1.94805      4.83758        -0.085378     -0.059376      0.158762
O       9.59628     13.56828      4.93387         0.205139      0.018340     -1.017081
O       9.74175      1.79292      9.32658         0.120009      0.023464     -0.777681
O       9.60564     13.50001      9.31489         0.383755     -0.095269      0.364181
O       9.56026      5.89360      0.54841        -0.025891      0.074591     -0.181187
O       9.61558      5.82950     13.54702         0.262733     -0.464969      0.646762
O       9.78737      5.74019      4.91025        -0.253093      0.072520     -0.012348
O       9.71626      5.88533      9.19922        -0.188125     -0.330954      1.021643
O       9.62067      9.58049      0.61854         0.082033     -0.007378     -2.042801
O       9.62946      9.68474     13.73157        -0.095242      0.235265     -1.404428
O       9.67162      9.66132      4.96721        -0.214228      0.195914     -0.820548
O       9.67374      9.53736      9.31528         0.210655      0.413842     -2.093650
O       3.86845      1.93291      2.69120        -1.651594      0.077327      0.549572
O       3.77136      1.95078     15.76439         0.908091      0.600429      0.222310
O       3.87837     13.46187      2.68857        -0.685510     -0.113580      0.257162
O       3.80803     13.62854     15.87556         0.124171     -1.366791     -0.788725
O       0.01997      2.12592      2.76604         0.396432     -0.863792      0.363168
O      15.40713      1.90883     15.68527         0.782778      0.107678      0.342410
O       0.06048     13.43740      2.72189        -1.304568      0.199851      0.523101
O       0.03949     13.44682     15.70366        -0.683668     -0.025980      0.317640
O       3.76424      2.09478      7.09436         0.630722     -1.258259      0.095429
O       3.88533     13.45103      7.04777        -1.433179      0.707010      0.063815
O      15.42557      1.92982      7.10950        -0.119214      0.079785     -0.023324
O      15.41381     13.54819      7.12031         0.412717     -0.288832     -0.715907
O       3.82231      1.82620     11.35102         0.203575      0.001951      0.151182
O       3.87520     13.65252     11.39263        -0.709728     -0.905057     -0.035874
O      15.41319      1.86408     11.41064         0.198212      0.430203      0.003307
O      15.37005     13.69602     11.45928         0.128002     -1.214970      0.123249
O       3.81730      5.97943      2.67710         0.210626     -0.255185      0.347721
O       3.82060      5.69722     15.80962         0.919275      0.191073      0.117297
O       0.05891      5.80039      2.70046        -0.542671      0.015424      0.682264
O      15.46308      5.91489     15.60393        -0.479461     -0.293084      0.454751
O       3.88762      5.91871      7.11553        -0.442021      0.124052      0.520254
O      15.39281      5.83870      6.92796         0.933066      0.207803      0.724545
O       3.82898      5.83185     11.20973         0.363784     -0.303406      0.709283
O      15.45119      5.78416     11.49104        -0.193553      0.177769     -0.289700
O       3.89038      9.63880      2.75666        -0.088595      0.177320     -0.284683
O       3.82318      9.75513     15.77132        -0.031312      0.025699     -0.015544
O       0.01167      9.63919      2.63328         0.180138      0.583609      0.491327
O       0.00631      9.57349     15.59431        -0.265069      0.636939      0.529622
O       3.82378      9.56263      7.00138        -0.348975      0.133965      0.117640
O      15.44734      9.55756      7.07473        -0.014220      0.797781     -0.233181
O       3.80844      9.74727     11.35430        -0.198368     -0.657952      0.229581
O      15.40933      9.62967     11.47649         0.327093      0.010051      0.240222
O       7.67431      2.07334      2.56523        -0.692529     -0.687041      0.763040
O       7.71053      1.86500     15.65628         0.034921      0.393535      0.612298
O       7.71310     13.63696      2.74406        -0.341739     -0.510424     -0.140046
O       7.74972     13.67302     15.79810        -0.742829     -0.447894      0.313064
O       7.65510      1.91031      6.98291        -0.192338      0.441323      0.406570
O       7.66148     13.44589      6.98258         0.370782      0.408131      0.326127
O       7.72046      1.94298     11.45635         0.120239     -0.381520     -0.120734
O       7.66876     13.40872     11.36194         0.950104      0.030406      0.442582
O       7.75806      5.85100      2.72715        -1.568101     -0.179482      0.384586
O       7.67072      5.81589     15.62908        -0.007752      0.399579      0.405935
O       7.71110      5.65831      6.99489         0.504283      0.327671      0.491392
O       7.68042      5.83806     11.28648         0.249169     -0.672802      0.764972
O       7.76202      9.69659      2.64227        -0.942992     -0.251526      0.209649
O       7.61295      9.54976     15.79244         0.678416      0.445388      0.011559
O       7.64135      9.75942      7.06429         1.006198      0.114315      0.391080
O       7.75557      9.74905     11.33622        -1.378101     -0.027099      0.505273
O      11.63972      1.97140      2.59319        -0.376635     -0.265506      0.602753
O      11.64032      2.01944     15.77810        -0.328142     -0.132434      0.176575
O      11.60912     13.55685      2.65058         0.393122     -0.077098      0.364605
O      11.55386     13.49962     15.85740         0.541987     -0.064600      0.007490
O      11.54920      1.93076      6.95921         0.955040     -0.049331      0.621902
O      11.53280     13.68818      7.02569         1.046398     -0.817233      0.127856
O      11.63716      1.97274     11.52519        -0.093998     -0.341510     -0.203821
O      11.58357     13.43541     11.40627        -0.209470      0.301840      0.237137
O      11.54204      5.88914      2.63853         1.477109     -0.123170      0.454307
O      11.67486      5.83826     15.76796        -0.868683     -0.220262     -0.068913
O      11.60816      5.80368      7.07792         0.411960      0.075565      0.091410
O      11.56205      5.85637     11.38551         0.200283     -0.119705      0.201152
O      11.60008      9.62195      2.68253         0.168664      0.041950      0.150771
O      11.55574      9.71957     15.72496         0.462079     -0.704377      0.232490
O      11.57625      9.64927      6.98116         0.222766      0.382682      0.763669
O      11.59427      9.67575     11.36215        -0.082804     -0.229696      0.423823
O       1.99853      3.94991      2.70704         0.076385      0.045236      0.326353
O       1.85138      3.91117     15.72692        -0.166708     -1.153873      0.502637
O       1.94782     15.39785      2.67398        -0.515696      0.695120      0.623203
O       1.95852     15.45603     15.76573        -0.657830     -0.436099     -0.247469
O      13.48933      3.81949      2.57521         0.304025      2.202478      0.716480
O      13.55309      3.84540     15.67674         0.048168      1.052290      0.163684
O      13.57303      0.09705      2.70485         0.694027     -1.712996      0.660960
O      13.57708     15.44689     15.68790        -0.545214     -0.214623      0.196153
O       1.92412      3.92219      7.14460        -0.505447      0.095298      0.256336
O       1.98727      0.03738      6.99383        -0.471005     -1.143610      0.284054
O      13.58380      3.95338      7.16600        -0.420349     -1.241040     -0.412624
O      13.53493      0.01285      6.98812         0.079117     -0.330790      0.264799
O       1.89512      3.86105     11.43941         0.214129     -0.947549     -0.159339
O       1.79670     15.43940     11.39747         0.678033      0.149748      0.362457
O      13.45659      3.91896     11.40838         0.388411     -1.055648     -0.105150
O      13.41235      0.01291     11.35158        -0.030690     -0.341981      0.145328
O       1.90640      7.78533      2.77758        -0.279607     -0.792166      0.091764
O       2.05615      7.72214     15.56158        -0.208808      0.047819      0.861897
O      13.64384      7.75910      2.69872        -0.322300     -0.072205      0.479115
O      13.57646      7.72155     15.71989        -0.690883      0.211232     -0.016957
O       1.86888      7.76171      7.13775         0.317043      0.013811      0.196086
O      13.50076      7.74437      6.95920        -0.040757      0.082164      0.289247
O       1.97408      7.68088     11.45666        -0.598861      0.913637     -0.335532
O      13.50258      7.72319     11.36488        -0.072526      0.435132      0.359636
O       1.93214     11.54205      2.71739        -0.345210      0.087952     -0.088662
O       1.96897     11.58686     15.68199        -0.419265     -0.263872      0.392713
O      13.47974     11.59068      2.73415         0.645960     -0.246167     -0.259775
O      13.43197     11.55237     15.68299         0.796476     -0.207707      0.725271
O       1.92085     11.53692      6.88060        -0.259041      0.590380      0.346079
O      13.51682     11.59035      7.11335        -0.150441      0.524078     -0.174584
O       1.78268     11.51654     11.48840         0.355824      1.408866     -0.055000
O      13.50500     11.57967     11.34815         0.304864      0.897652      0.370656
O       5.75884      3.93121      2.61555        -0.312797      0.454485      0.672422
O       5.85210      3.91024     15.84199        -0.653348      0.175524     -0.260041
O       5.71216     15.44076      2.66746         0.349405     -0.058097      0.234934
O       5.68780      0.05827     15.87195         0.272028     -0.274658      0.095292
O       5.66825      3.88808      6.93242         0.259581     -0.453966      0.647493
O       5.76267      0.04686      7.02479        -0.542976     -0.837810     -0.141176
O       5.75650      3.78350     11.32192        -0.166034      0.372823      0.313122
O       5.84095     15.39938     11.23110        -0.020473      0.081000      1.226742
O       5.86771      7.78358      2.66438        -0.083691      0.540663      0.102328
O       5.59237      7.77049     15.75831         0.463507     -1.198601     -0.328953
O       5.97812      7.77526      7.04408        -0.866585     -0.303091      0.461324
O       5.78270      7.70776     11.32976        -0.244926      0.790154      0.190113
O       5.84752     11.59611      2.65573        -0.176549     -0.176206     -0.024987
O       5.82081     11.62601     15.73550        -0.084184      0.206592      0.111909
O       5.70976     11.54389      7.02355        -0.057926      0.700539      0.311549
O       5.61189     11.57828     11.27760         0.686654      1.128883      0.631752
O       9.69287      3.90900      2.65000        -0.184952     -0.133159      0.490839
O       9.58458      3.90913     15.83587         0.589021      0.273923     -0.022167
O       9.70129      0.02965      2.70425        -0.442213     -0.152653      0.323237
O       9.71126      0.03516     15.74022         0.280784      0.225193      0.276679
O       9.66903      3.83714      7.11989        -0.046779     -0.165940      0.251674
O       9.56025      0.07412      7.05606         0.277121     -1.723576      0.288632
O       9.64020      3.82790     11.23122         0.111953     -0.226118      0.633213
O       9.68793      0.00835     11.52474         0.239959     -1.066361     -0.050099
O       9.62753      7.68352      2.79985        -0.012167      1.891223      0.218911
O       9.63284      7.74351     15.63830         0.295147     -0.939328      0.764713
O       9.55776      7.72747      7.02880         0.107971      0.199872      0.170356
O       9.50673      7.70917     11.49887         0.804033      0.502653      0.123338
O       9.64797     11.59884      2.67718         0.065581     -0.241220      0.212227
O       9.56793     11.58272     15.76764         0.035385      0.014051      0.628701
O       9.64089     11.63125      7.09171         0.423710     -0.035375      0.242954
O       9.69419     11.44324     11.46901        -0.032334      2.785872      0.313605
