  # total energy = -7880.39118596 
CRSYTAL
PRIMVEC
    15.464    0.0000000000000000    0.0000000000000000
     0.0000000000000000   15.464    0.0000000000000000
     0.0000000000000000    0.0000000000000000   17.350608
PRESSURE
-0.89534 -1.16434 -0.629581 -0.231819 -0.027714 0.032432
PRIMCOORD
320 1
Pb       3.78410      3.77257      4.24691         0.087514      0.430054     -0.116871
Pb       3.69081      3.79817      0.03307         0.865831      0.351124     -0.299265
Pb       3.96093     15.34360      4.32357        -0.224502      0.134975     -0.708574
Pb       3.72202      0.00270      0.05748         0.573161     -0.279132     -0.214098
Pb      15.23768      3.83446      4.25439         0.406485      0.148247     -0.118801
Pb       0.03360      3.98150     17.28915        -0.374010     -0.283904     -0.103247
Pb      15.41104      0.00268      4.33697        -0.167118      0.154987     -0.264036
Pb      15.45047      0.04034     17.32172         0.161992     -0.340582     -0.039852
Pb       3.89308      3.81146      8.69073         0.110262      0.311071     -0.462067
Pb       3.83568      0.08032      8.56699         0.335347      0.015858      0.097902
Pb       0.10373      4.01528      8.73429        -0.359618     -0.349510     -0.664401
Pb       0.07180      0.04792      8.69396        -0.203596      0.023547     -0.790494
Pb       3.92190      3.95289     13.10838         0.416497     -0.247539     -0.830676
Pb       3.77740      0.12696     13.00265         0.524379     -0.210720     -0.711696
Pb      15.42388      3.84013     13.06449        -0.409177     -0.066320     -0.629810
Pb      15.44342     15.33754     13.07368         0.260250      0.156141     -0.968313
Pb       3.98813      7.69205      4.36663        -0.423708     -0.305197     -0.385119
Pb       4.05320      7.84038     17.15902        -0.920599     -0.536553      0.676158
Pb       0.14397      7.74980      4.41871        -0.392461     -0.128132     -0.655919
Pb       0.04160      7.71410     17.29200         0.035874      0.062284     -0.029967
Pb       3.71329      7.61572      8.65800        -0.076684     -0.338390     -0.502866
Pb      15.19540      7.79548      8.60530         1.263533     -0.429465      0.153591
Pb       3.81191      7.74908     12.98806         0.642270     -0.354111     -1.004402
Pb      15.44207      7.50959     13.03079        -0.167347      0.255385     -0.579030
Pb       3.89090     11.48132      4.33189         0.081187      0.036875     -0.336739
Pb       3.84428     11.58235     17.27882        -0.220195     -0.114325      0.349794
Pb       0.03760     11.62661      4.29207        -0.209911     -0.468779     -0.110451
Pb      15.42656     11.57958      0.01909         0.488523     -0.229050     -0.433285
Pb       3.87834     11.50606      8.72214        -0.132481     -0.083139     -0.330229
Pb       0.09379     11.68723      8.70103         0.171077     -0.202729     -0.625142
Pb       3.85490     11.63130     12.93499        -0.069095      0.169238     -0.577023
Pb       0.01369     11.38565     13.24519        -0.009669      0.252139     -0.950326
Pb       7.81882      3.86458      4.24219        -0.455833     -0.328646     -0.577230
Pb       7.68900      3.78530     17.31292        -0.361014      0.190437     -0.361640
Pb       7.63293      0.01162      4.30883        -0.000485      0.142102     -0.201979
Pb       7.75836      0.04014     17.34395        -0.539339      0.293183     -0.359691
Pb       7.78063      3.81602      8.63173        -0.847208     -0.211015     -0.467204
Pb       7.79350     15.29218      8.58575        -0.026946      0.640776     -0.119853
Pb       7.76787      3.95056     13.06356        -0.424386      0.082912     -0.742230
Pb       7.58536     15.40979     12.93739         0.082129      0.162880     -0.340385
Pb       7.77170      7.65572      4.32156        -0.680210      0.299712     -0.424040
Pb       7.69286      7.76374     17.24314        -0.027613     -0.500170      0.018272
Pb       7.74044      7.72063      8.66136        -0.543697     -0.002291     -0.511141
Pb       7.83558      7.73208     12.93503        -0.702923      0.025643     -0.184076
Pb       7.72389     11.59995      4.32961        -0.125654     -0.449633      0.325831
Pb       7.73833     11.72963     17.33923        -0.259906     -0.635687      0.257372
Pb       7.83982     11.53385      8.66868        -0.180097     -0.354837     -0.998400
Pb       7.73044     11.68358     12.99448        -0.286705     -0.421721     -0.651358
Pb      11.68465      3.84678      4.19034        -0.430227      0.201654      0.013770
Pb      11.53706      3.78270     17.23267         0.435882     -0.264913     -0.388664
Pb      11.49767      0.06825      4.33380         0.302712      0.127599     -0.436009
Pb      11.59113     15.42281     17.25563        -0.223195      0.393012     -0.263064
Pb      11.36143      3.82000      8.52598         0.960963      0.142465      0.154674
Pb      11.65377      0.03570      8.61254        -0.130937     -0.209766      0.152044
Pb      11.47280      3.88211     12.92219         0.358388     -0.082586     -0.470734
Pb      11.46534      0.01003     12.99000         0.261512     -0.052510     -0.735604
Pb      11.43931      7.75250      4.37814         0.736262     -0.281379     -0.626126
Pb      11.44100      7.68141      0.04262         0.547811      0.295875     -0.723014
Pb      11.55437      7.74490      8.53595        -0.005203     -0.254757      0.180906
Pb      11.58983      7.64211     12.92466         0.000584      0.159669     -0.350415
Pb      11.53845     11.74275      4.26971         0.173498     -0.633307      0.412586
Pb      11.60743     11.56731      0.04758        -0.145724     -0.484365     -0.769429
Pb      11.77728     11.69286      8.73806        -0.587170     -0.214869     -0.518325
Pb      11.45677     11.53366     13.15127         0.201241     -0.210021     -1.026566
Ti       1.85457      1.89835      2.40463         0.038465      0.488958      1.433483
Ti       1.96112      1.89483     15.36122         0.362923     -0.145899      0.731166
Ti       1.88697     13.51273      2.35260         0.925311     -0.404787     -0.501002
Ti       1.95879     13.47755     15.37915        -0.005471      0.121234     -0.201896
Ti      13.40706      1.83870      2.19466         0.407757      1.179218      0.204868
Ti      13.61025      1.80446     15.23787        -1.402378      1.757075     -0.206508
Ti      13.49799     13.38888      2.28536        -0.191241      1.392439      2.007208
Ti      13.48605     13.50245     15.30605         0.088646     -0.294896      0.183068
Ti       1.93906      1.92124      6.56237        -0.757565      0.159418     -0.625850
Ti       2.00430     13.48018      6.59915        -1.439235      0.097899      0.394783
Ti      13.56378      1.91415      6.72010         0.620969      0.569511      0.836472
Ti      13.51834     13.50751      6.68652         0.344163      0.840844     -0.471430
Ti       1.89256      1.96235     10.95158         0.561747      0.156381      0.510838
Ti       1.98371     13.57304     10.94788         0.672973     -0.587515      0.514480
Ti      13.55868      1.83754     10.92053        -0.395949      0.008210     -0.602945
Ti      13.61038     13.39802     11.02079        -1.103005      1.148454      0.386772
Ti       1.85112      5.80193      2.24744         0.614864     -0.282131      1.207065
Ti       1.95598      5.75858     15.28477         0.685702      0.435083      0.671558
Ti      13.46790      5.78614      2.08234        -0.001647      0.275524      3.461516
Ti      13.47141      5.79037     15.34211        -0.188073      0.084264      0.544016
Ti       1.80010      5.71140      6.51971         1.284548      0.519013      0.345908
Ti      13.54869      5.75015      6.61209        -0.245100     -0.536657      0.460625
Ti       1.82674      5.68640     11.03807         1.468456      1.649819     -2.195019
Ti      13.47818      5.68927     10.85679        -0.598628      0.642742      0.461364
Ti       1.92377      9.59095      2.32992         0.047323      0.110548     -0.695946
Ti       1.88254      9.65377     15.22810         0.407715     -0.155826      1.602652
Ti      13.48827      9.60191      2.24170         0.680621     -0.748029      1.079445
Ti      13.50944      9.66256     15.33270        -1.165125     -1.318894      1.325824
Ti       1.85510      9.55633      6.62811         0.513496      0.003756      0.478793
Ti      13.51424      9.71566      6.66097        -0.225320     -0.189353     -0.525552
Ti       1.90165      9.60889     10.94317         0.331004      0.062697      0.037294
Ti      13.61765      9.61263     11.00611        -1.012337      0.410186     -0.159552
Ti       5.69611      1.82971      2.20787         1.044852      0.197975     -0.176259
Ti       5.80868      1.79157     15.29159        -0.280169      1.293288     -0.706059
Ti       5.82795     13.37809      2.30047        -0.310288      0.905575      0.091171
Ti       5.80529     13.47350     15.29294        -0.991003      0.971531     -0.800612
Ti       5.78410      1.87043      6.55550         0.417439      0.210986      1.551107
Ti       5.71498     13.40784      6.67414         1.492390     -0.090099     -0.200760
Ti       5.82740      1.88507     10.95099        -0.535687      0.763308      0.344590
Ti       5.81048     13.47571     10.83175        -0.959191      0.622306      1.404503
Ti       5.71759      5.75322      2.29185        -0.239657     -0.080542      1.389394
Ti       5.82944      5.73908     15.32424        -0.468777     -0.429838      1.387949
Ti       5.73861      5.70425      6.55120        -0.116460      0.613507      1.413903
Ti       5.74453      5.76496     10.94666         0.171146     -0.049529      2.805402
Ti       5.77013      9.64411      2.30491        -0.194587     -0.770634      0.845989
Ti       5.75181      9.74060     15.25846         0.423141     -1.138647     -1.260265
Ti       5.67941      9.56671      6.61232         1.050303      0.035072      0.011008
Ti       5.76603      9.67709     10.99940         0.579701     -2.068036     -0.787346
Ti       9.59109      1.87263      2.20090         0.204928      0.580339      1.819489
Ti       9.68829      1.89463     15.19587        -0.554082     -0.375197     -0.281617
Ti       9.60309     13.51322      2.30162        -0.096907     -0.110684      0.589315
Ti       9.57063     13.44352     15.25261         1.219665      0.993536     -1.176791
Ti       9.64575      1.90095      6.62680        -0.860650     -0.985833     -0.596631
Ti       9.64068     13.46248      6.58274         0.281990      0.153237      0.834357
Ti       9.66170      1.92170     10.98866        -0.690251     -0.524708     -0.330659
Ti       9.71811     13.47078     11.10685        -0.739834      0.555705      0.462671
Ti       9.62313      5.78124      2.23053        -0.164668     -0.917444     -0.330933
Ti       9.64011      5.75919     15.34384        -0.537708     -0.293971     -0.641443
Ti       9.64687      5.82223      6.57034        -0.265388     -0.417556      1.338651
Ti       9.61028      5.77270     10.87289         0.082488      0.094469      0.335113
Ti       9.64712      9.60136      2.32919        -0.670404      0.366836      0.585107
Ti       9.56774      9.64462     15.39075         1.204971     -0.703279      0.279309
Ti       9.64514      9.62811      6.58709        -0.687592      0.756362      0.141127
Ti       9.69147      9.60079     10.92290        -0.086125      0.069995     -0.256246
O       1.98359      1.96985      0.68208        -0.064275     -0.187084     -1.996855
O       1.90085      1.84023     13.65128        -0.066046      0.167154     -1.155380
O       1.98141     13.51780      0.56962        -0.302107     -0.014412     -0.122232
O       1.93393     13.50946     13.60623        -0.133686      0.102644     -0.361008
O      13.36487      1.84846      0.42660         0.149305     -0.030869     -0.457844
O      13.48902      1.91375     13.41956         0.488511     -0.647982      1.253443
O      13.52703     13.40562      0.57989        -0.087178      0.017332     -1.720774
O      13.48218     13.72171     13.58150         0.388216     -0.446810     -0.697801
O       1.95046      1.92699      4.75424        -0.359381     -0.579219      0.530679
O       1.91732     13.46726      4.82919        -0.015728      0.278402     -0.478983
O      13.53910      2.01363      4.98809        -0.167061     -0.609012     -1.439023
O      13.48479     13.50604      4.93077         0.244972      0.235524     -1.165053
O       1.86610      2.06952      9.20858         0.280749     -0.231694     -1.225263
O       2.20232     13.41430      9.23364        -0.762178      0.504583     -0.866761
O      13.50088      1.97173      9.11245        -0.024042     -0.067641      0.649024
O      13.37268     13.40445      9.26223         0.296410     -0.535391     -0.669421
O       1.84175      5.86493      0.47944         0.157502     -0.633230     -0.827700
O       1.89531      5.65098     13.51640        -0.365415      0.365718     -0.021434
O      13.35040      5.73916      0.39853         0.193057     -0.406488     -2.144932
O      13.60638      5.88273     13.59169        -0.303182      0.070196     -0.797274
O       1.76866      5.79271      4.75023        -0.233258      0.149923      0.033726
O      13.52044      5.73045      4.87068         0.198215      0.262528     -0.820801
O       1.86537      5.71932      9.15359         0.228108     -0.367058      1.579721
O      13.53007      5.55931      9.11249         0.016242      0.506322     -0.131736
O       1.94256      9.61405      0.55867        -0.179108     -0.062112     -0.312253
O       1.92001      9.85213     13.50770        -0.098425     -0.556093     -0.889419
O      13.48146      9.79255      0.51711         0.019674      0.282259     -1.104917
O      13.51918      9.54946     13.61573        -0.078880      0.157638     -1.796518
O       1.85980      9.53567      4.83807        -0.367041      0.401803      0.019608
O      13.69925      9.62690      4.93997        -0.421341      0.026812     -0.811184
O       1.93613      9.58511      9.18014        -0.188155      0.209039     -0.468432
O      13.64192      9.82664      9.22415        -0.174350     -0.230632      0.236293
O       5.90678      1.77658      0.41306        -0.621754      0.282554      0.272335
O       5.72350      1.85094     13.45898         0.013087     -0.059795      0.797159
O       5.97867     13.29844      0.55041        -0.130803      0.076446     -1.235082
O       5.76702     13.43267     13.51209         0.125712     -0.054590      0.562594
O       5.88699      1.78089      4.84029        -0.007370      0.107518     -1.600593
O       5.87647     13.28717      4.90995        -0.302077      0.688886     -0.432091
O       5.66601      1.96052      9.20045        -0.135950     -0.349627     -0.456815
O       5.70366     13.46853      9.09195         0.250102      0.084638     -1.197419
O       5.71580      5.83029      0.57082         0.366409     -0.206846     -1.157504
O       5.80856      5.62984     13.63915         0.072262      0.142318     -2.658439
O       5.76783      5.84336      4.81350         0.108994     -0.456715     -0.302377
O       5.72740      5.70398      9.26656        -0.172014      0.395111     -2.306500
O       5.61264      9.74487      0.55455         0.476396     -0.256724     -1.083559
O       5.82837      9.69421     13.49242        -0.538717      0.409462      0.037687
O       5.60116      9.54671      4.82562         0.426280      0.326916     -0.116178
O       5.90182      9.48073      9.20410        -0.426787      0.574271      0.579268
O       9.63821      1.84196      0.49221         0.036193     -0.075749     -1.980994
O       9.70065      1.93222     13.38051        -0.038320      0.228626      0.799442
O       9.45860     13.36807      0.55727         0.403373      0.184495     -0.982275
O       9.54292     13.47383     13.39694         0.270855     -0.346010      1.409630
O       9.63505      1.75374      4.84140        -0.212048      0.070637     -0.000823
O       9.71906     13.50412      4.85216        -0.164832      0.252554     -1.764588
O       9.66398      1.87250      9.21422         0.229936      0.458026     -0.823949
O       9.59699     13.47102      9.39339         0.126905     -0.296656     -2.100651
O       9.36718      5.79940      0.44463         1.011417     -0.045870      0.589728
O       9.56842      5.64374     13.51516         0.299533      0.363393      0.950192
O       9.67716      5.80919      4.84102        -0.226578      0.293230     -0.794339
O       9.64714      5.86777      9.10009        -0.096777     -0.521868     -0.410008
O       9.59764      9.60784      0.58160         0.145665      0.007987     -0.967140
O       9.65483      9.56699     13.67110         0.344993      0.088945     -1.335045
O       9.55419      9.46965      4.82138         0.695987     -0.020747     -0.647047
O       9.56238      9.52800      9.14191         0.136723      0.374526      0.102499
O       3.87145      1.96617      2.71636        -0.289200     -0.717570     -0.123512
O       3.85974      1.80991     15.74155        -0.160072      0.618973      0.157561
O       4.00703     13.50816      2.63636        -2.023020     -0.666267      0.590688
O       3.88987     13.52798     15.70410        -0.362603     -0.262985      0.307433
O      15.38089      1.95484      2.57283         0.273370     -0.475100      0.362510
O       0.01011      1.91265     15.69756        -0.543685      0.011889      0.078402
O      15.46227     13.68207      2.66920        -0.822604     -0.785177      0.099896
O       0.04814     13.53641     15.70898        -0.835643     -0.096698      0.238717
O       3.81879      1.84409      6.84384         0.417917      0.394176      0.597934
O       3.87215     13.35853      6.84579        -0.512970      0.787266      0.518148
O      15.45980      1.74668      6.96341         0.731329      0.258217      0.214078
O       0.05401     13.55020      7.06238        -0.212464     -0.133796      0.254850
O       3.73824      2.00176     11.27606         1.219278     -0.131308      0.735580
O       3.91142     13.53041     11.27128        -0.700054     -0.163350      0.734883
O       0.01039      1.79974     11.24550        -1.372089      0.411386      0.804636
O      15.42546     13.69423     11.25257         1.015751     -0.314811      0.316601
O       3.80178      5.78037      2.65840         0.477850     -0.654283     -0.045180
O       3.88388      5.62904     15.62045        -1.108131      0.546649      0.221443
O      15.38311      5.73070      2.42744        -0.106887     -0.132093      0.192534
O      15.38605      5.75039     15.68605         0.804047     -0.142707      0.248067
O       3.75092      5.82102      6.97785         1.114259     -0.158374     -0.016009
O       0.00312      5.85483      7.07672        -0.348323     -0.192948     -0.125178
O       3.82766      5.71479     11.49662        -0.310142      0.063940     -0.070143
O      15.41991      5.78279     11.36111        -0.693884      0.489061      0.336004
O       3.85937      9.66054      2.66188        -0.481570      0.177636      0.518710
O       3.78574      9.71262     15.62819         0.454889     -0.171198      0.016032
O      15.43999      9.65570      2.59023        -0.204040     -0.087294      0.432692
O      15.42119      9.75947     15.59845         0.675297     -0.503452      0.390950
O       3.79109      9.55272      6.87417        -0.456026      0.303567      0.740267
O      15.39188      9.65613      7.05932         0.900837      0.034376      0.290707
O       3.81552      9.64656     11.32184        -0.054628     -0.087088      0.415293
O       0.02396      9.57590     11.46329        -0.607801     -0.055113      0.163899
O       7.66902      1.86622      2.49850         0.793411     -0.590629      0.762753
O       7.69119      1.76915     15.57741         1.060269      0.320924      0.264359
O       7.69496     13.53337      2.70142         1.248399      0.173783      0.539176
O       7.74361     13.40683     15.52605        -0.251103      0.080689      0.708341
O       7.67754      1.87678      7.06156         0.471873      0.255518      0.005740
O       7.74431     13.48679      6.96815        -0.451892     -0.447631      0.593150
O       7.68983      1.87485     11.11317         0.080161      0.128470      0.888192
O       7.60504     13.53466     11.37648         0.910777     -0.704825      0.069356
O       7.77440      5.68449      2.76075        -0.804699      0.631669     -0.056754
O       7.69569      5.75160     15.71599         0.301409      0.301447      0.123413
O       7.66864      5.72348      7.05792         0.585707      0.261930     -0.515868
O       7.75167      5.86330     11.38862        -0.985644     -0.078981     -0.196158
O       7.62926      9.48286      2.67936         0.981185      0.073179      0.007630
O       7.68973      9.55069     15.54598        -0.412832      0.350115      0.859135
O       7.73680      9.75876      6.83610        -0.179255     -0.641729      0.744071
O       7.74677      9.54836     11.35878        -0.194750      0.151744      0.112409
O      11.55386      1.91511      2.66091        -0.406249      0.246796      0.255100
O      11.57737      1.77547     15.65823         0.092892      0.339542     -0.164710
O      11.54425     13.38360      2.63325         0.272145      0.164457     -0.102983
O      11.53247     13.48726     15.58110         0.493761      0.000772      0.515526
O      11.57267      1.82288      6.95550        -0.233367      0.359988      0.384093
O      11.56634     13.47634      6.96696        -0.029433      0.358527      0.723296
O      11.54307      1.99298     11.25193         0.817011      0.143432      0.548550
O      11.52453     13.45809     11.49260         1.337150     -0.297195      0.196546
O      11.52893      5.78975      2.64874         0.293797     -0.257467     -0.221954
O      11.52381      5.70711     15.65045         0.002972      0.345666      0.211988
O      11.59459      5.75117      6.88779        -0.674167     -0.036184      0.522845
O      11.50309      5.67847     11.18983         1.224902      0.067588      0.729869
O      11.59066      9.66789      2.66004        -0.592007      0.017326      0.212342
O      11.56112      9.61169     15.74506        -0.059958      0.232925      0.481602
O      11.59787      9.50630      6.96803         0.026468      0.694901      0.018778
O      11.60015      9.72287     11.23403         0.091537      0.027697      0.701396
O       1.98743      3.84613      2.77602        -0.640772     -0.052231     -0.714667
O       1.95927      3.86662     15.78063        -0.588137     -0.680723      0.039177
O       1.99314     15.40256      2.69330         0.014353      0.493435      0.298463
O       1.95688      0.00563     15.80707        -0.470887     -0.367257      0.122901
O      13.43427      3.83204      2.67767         0.131168      0.188031     -0.433481
O      13.37465      3.82822     15.57150         0.636515     -0.742524      0.329421
O      13.38735      0.08346      2.65502         0.411949     -2.158217      0.368756
O      13.59338     15.39881     15.73406        -0.242498      0.338643      0.080961
O       1.94224      3.85323      6.81347        -0.467766     -0.867733      0.553235
O       1.96409      0.01683      7.13703         0.201797     -0.900474     -0.396604
O      13.75033      3.87699      6.87868        -0.718018     -0.766542      0.622046
O      13.57014     15.38980      7.09807        -0.455867      0.502952      0.278896
O       1.79653      3.90462     11.41503        -0.185785     -1.601437      0.348386
O       1.98162      0.07043     11.31506        -0.141328     -1.464681      0.278667
O      13.60818      3.94704     11.37782        -0.169983     -1.675022      0.351866
O      13.43006     15.42580     11.07800        -0.222765      0.533692      0.935096
O       1.92985      7.65536      2.68651        -0.486725      0.674354      0.103834
O       1.89756      7.66383     15.62245        -0.150830      0.621861     -0.311870
O      13.45549      7.69082      2.39732         0.054684      0.246833      0.276272
O      13.48553      7.73580     15.78250         0.141126     -0.354039      0.073337
O       1.86241      7.66313      6.96684        -0.282208      1.188385      0.062500
O      13.53016      7.67309      7.03740        -0.180577      0.632144      0.127392
O       1.88720      7.62592     11.21951         0.324453      0.887103      1.067602
O      13.30084      7.73090     11.25537         1.072561     -0.417448      0.156669
O       1.90142     11.55394      2.61684        -0.136619      0.663757      0.606255
O       1.88266     11.54267     15.69331         0.126446      0.636367      0.231515
O      13.50665     11.58143      2.72964         0.433486      0.101379     -0.030889
O      13.51726     11.57491     15.61760        -0.129642      0.843440      0.274946
O       1.86861     11.62106      7.03976         0.211743     -0.962417     -0.018742
O      13.50122     11.64902      6.92564        -0.006985     -1.245837      0.970455
O       1.91341     11.56685     11.21551        -0.296388      0.617790      0.656199
O      13.66695     11.58403     11.51128        -0.417075     -0.423231      0.051398
O       5.80338      3.73583      2.67099         0.048329      0.894116     -0.092776
O       5.85655      3.81242     15.58983        -0.075190     -0.928094      0.759091
O       5.69386     15.35973      2.49841         0.576390      0.798581      0.982134
O       5.77756     15.39563     15.65350         0.286118     -0.735465      0.222323
O       5.78494      3.82436      7.05216        -0.344280      0.108286     -0.335453
O       5.77278     15.45281      6.86828        -0.289637     -1.190265      0.592757
O       5.77136      3.87317     11.24892         0.193038     -0.625524      0.829879
O       5.80124     15.40753     11.45302        -0.656613      0.402605     -0.735012
O       5.64513      7.65750      2.68775         0.771172      0.259464     -0.151635
O       5.69014      7.73750     15.51622         0.200373      0.302245      0.661426
O       5.81111      7.70393      6.96857        -0.028316     -0.527003      0.181694
O       5.62778      7.68823     11.45788         0.435850      0.183340      0.073408
O       5.89856     11.53368      2.77480        -0.318809     -0.576194     -0.026042
O       5.75126     11.59033     15.62658         0.208829     -0.221337      0.414817
O       5.69971     11.48886      7.01899         0.231847      0.270602      0.438937
O       5.70586     11.52713     11.17609         0.364775      0.788578      0.421572
O       9.63369      3.80312      2.53954         0.008403      0.105783      0.415816
O       9.58349      3.80174     15.67368         0.171220     -0.680645      0.018898
O       9.81564     15.41677      2.48807        -0.669781     -0.560823      0.567925
O       9.68072     15.44723     15.54461        -0.297966     -0.967435      0.396407
O       9.60761      3.80576      6.83183         0.174321      0.458750      0.731747
O       9.52421     15.41509      6.99428         0.711523     -0.036237      0.255908
O       9.54747      3.92163     11.29309         0.103015     -1.191108      0.196222
O       9.61484     15.44050     11.27445         0.293794      0.118984      0.866109
O       9.68261      7.65053      2.66302        -0.135314      0.742977      0.172647
O       9.63540      7.60041     15.80674        -0.114822      1.165841     -0.185700
O       9.68513      7.72466      7.05368        -0.428764     -0.663424     -0.447257
O       9.70907      7.65060     11.37792         0.182172      0.958192      0.179679
O       9.52098     11.50717      2.71405         0.367529      0.321360     -0.025632
O       9.69854     11.52722     15.61436        -0.301280      0.964236      0.281641
O       9.67204     11.55986      6.84883         0.169467     -0.171321      0.648175
O       9.63288     11.48816     11.34353        -0.336067      0.264464      0.580243
