  # total energy = -7837.24986591 
CRSYTAL
PRIMVEC
    15.6080000000000005    0.0000000000000000    0.0000000000000000
     0.0000000000000000   15.6080000000000005    0.0000000000000000
     0.0000000000000000    0.0000000000000000   16.6239999999999988
PRESSURE
3.85061 4.22598 1.98035 0.052722 0.281679 0.313621
PRIMCOORD
320 1
Pb       4.31791      4.08442      4.30512        -2.318307     -1.654691     -1.468453
Pb       4.15858      3.66346      0.03709        -1.398098      1.366295      0.206710
Pb       4.32946      0.10526      4.23043        -1.639984     -0.431812     -0.845113
Pb       3.95313      0.19568      0.49911        -0.980037     -1.365178     -0.633940
Pb       0.48184      3.96663      4.22043        -1.803966      0.788538      0.945595
Pb       0.07976      3.90422      0.29842        -0.414744     -0.012117     -0.805525
Pb      15.40526      0.07023      4.19909        -0.674978     -0.847282      0.163377
Pb       0.06301      0.09000      0.08343         0.458258     -1.022796     -0.332676
Pb       4.03458      3.69756      8.19423        -0.966566      0.053460      0.934648
Pb       3.96687     15.60712      8.88643        -1.493811      0.939857     -1.809030
Pb      15.50806      3.72489      8.27315        -0.003733      0.705267     -0.429130
Pb      15.12455     15.46794      8.02234         0.336476      0.001174      0.454602
Pb       3.64274      3.83891     12.26187         1.371820     -0.036019     -0.542754
Pb       3.78148      0.48656     12.40825        -1.319417     -1.309079     -0.229613
Pb       0.28517      3.88773     12.50458        -0.476253     -0.770507      0.093714
Pb      15.14975     15.30845     11.87682         1.645232      0.243889      0.943542
Pb       3.95343      8.30496      4.18592        -1.812190     -1.723392     -0.125444
Pb       3.98977      7.99789      0.07289        -0.018642     -0.930186     -0.421048
Pb       0.23292      7.62588      4.16994        -0.562840      0.382454      0.713777
Pb       0.17225      8.28616     16.50901        -1.619746     -2.900102      0.196858
Pb       4.22420      7.90275      8.89123        -1.117140      0.091811     -1.276687
Pb       0.02873      7.81039      8.68302         0.614618     -0.555753     -1.348189
Pb       3.77643      7.41774     12.90533         0.437191      1.223013     -1.255553
Pb       0.01099      7.50722     12.60893         0.599912      0.586159     -0.366635
Pb       3.61047     12.13071      4.82953         0.732734     -1.357044     -1.519125
Pb       3.32068     11.96930      0.44484         2.512099     -0.603923     -0.864409
Pb       0.25736     11.62265      4.19910        -1.693201     -0.314132      1.172811
Pb      15.37225     11.67156     16.31561         0.873905      1.073260      0.930515
Pb       3.69477     11.50112      8.44936        -0.550007     -0.080827     -0.259926
Pb      15.36931     11.57487      8.21258         0.483507     -0.161745     -0.384901
Pb       4.48490     11.86031     12.58227        -2.955786      0.161666     -0.300170
Pb      15.15006     11.84714     12.48939         1.746619      0.148212     -0.357596
Pb       8.17684      3.97873      3.56788        -2.965248      0.569017      1.992107
Pb       7.79978      3.97968     16.42129        -0.112148     -0.434879     -0.009044
Pb       8.49425     15.58919      4.13883        -2.951503     -0.706841     -0.965318
Pb       7.59986     15.23528     16.56810        -0.088565      1.752249      0.442161
Pb       7.46697      4.04919      7.95785        -0.046437      0.631179      0.631133
Pb       7.64716      0.04481      8.41819         0.876062     -0.463654     -0.807708
Pb       7.94234      3.91182     12.45264        -0.420349      0.141599     -0.496266
Pb       8.23014      0.31344     12.86888        -1.460442     -1.393248     -1.219598
Pb       7.48142      7.88594      4.06106         1.510719     -0.663640      0.510820
Pb       7.58490      7.91907      0.29569        -1.315144     -0.646129     -1.211031
Pb       7.69743      8.11029      8.30995        -0.063635     -1.537488     -0.003265
Pb       7.64779      8.04497     12.60812         0.536953     -0.779946     -0.375338
Pb       7.65279     11.86808      4.03906        -0.040107     -0.215222     -0.561674
Pb       8.03011     12.14378      0.00004        -2.060772     -1.752255      0.417111
Pb       7.59202     11.37363      7.98074         0.252710      0.842148      1.155010
Pb       7.98016     11.41037     12.84813         0.439282      0.845245     -0.855938
Pb      11.25962      3.68372      3.88035         3.443370      0.752422      1.704586
Pb      11.89599      3.70715     16.54339        -0.147997      0.460123     -0.683637
Pb      11.71353     15.24323      4.38677         1.089487      1.029247     -0.334150
Pb      12.22490     15.59091      0.39685        -0.960828      0.858196     -0.528047
Pb      11.55188      4.09280      8.66560         0.608583      0.172129     -0.631480
Pb      11.59640      0.39341      8.12749         0.592851     -2.090196      0.060411
Pb      11.53227      3.31923     12.48144         0.279255      1.550622     -0.137455
Pb      11.45915     15.12245     12.24959         0.887493      1.974431     -0.549254
Pb      11.06171      7.49730      4.23181         1.580949      0.507781      0.454370
Pb      12.05434      7.92139      0.02986         0.583976     -0.413553     -0.297096
Pb      12.04464      7.51009      8.99384        -0.930523     -0.466460     -2.228733
Pb      11.53187      7.64805     12.75841         0.081527     -0.026154     -0.154541
Pb      11.29902     11.42280      3.90866         0.697614     -0.424515      0.462431
Pb      11.94832     11.40139     16.19605        -0.899728      1.005904      1.417831
Pb      11.11166     11.67839      8.29029         0.978808     -1.325761     -0.988112
Pb      11.69231     11.53859     12.32923        -0.177891     -0.103685      0.219424
Ti       1.81987      1.91662      2.42362         2.677653     -0.241485     -1.305666
Ti       1.99397      1.90299     14.78166        -0.221972     -0.138705     -1.511703
Ti       1.83428     13.64222      2.56037         0.173380      1.298292     -3.240075
Ti       1.75811     13.68340     14.57258         0.370205      0.664741     -2.521033
Ti      13.62045      1.96053      2.26660        -0.552772     -0.449226     -0.309131
Ti      13.72733      1.81992     14.32358        -0.393894      1.369674      2.591099
Ti      13.56784     13.30706      2.13650         2.063787      3.006298     -0.081684
Ti      13.44056     13.75421     14.69841         1.900106      0.612106     -0.360009
Ti       1.96980      1.92268      6.12908         1.060090      0.576820      3.155896
Ti       1.71818     13.79203      6.52502         0.197550      0.229627      1.870833
Ti      13.54283      2.18214      6.15918        -0.205312     -1.142475     -0.100642
Ti      13.41811     13.35769      6.11184         0.274124     -0.286743      3.602066
Ti       1.71026      1.80028     10.26754         0.963014     -0.328718      0.148536
Ti       2.01887     13.45388     10.38365        -1.157203      1.088271      0.806890
Ti      13.45196      1.82705     10.36110        -0.157284      0.842968      0.573252
Ti      13.35715     13.36994     10.03792         4.133962      0.644355     -1.325247
Ti       2.10938      5.91515      2.26869        -0.241298     -0.246623     -0.837267
Ti       1.99266      5.71351     14.86144         0.402298      1.018605      0.374562
Ti      13.77591      5.90981      2.13056         0.901498      0.151560     -0.578100
Ti      13.84730      5.70705     14.65929        -2.232638     -0.148966      0.464189
Ti       1.96070      5.83160      6.39627        -0.051296     -0.068742     -0.131639
Ti      13.70605      5.73113      6.09544         0.016996      2.762658      1.908625
Ti       1.94828      5.88126     10.51961         0.495334     -0.542718      1.001442
Ti      13.71495      5.49956     10.79803        -0.515657      1.463964     -0.968701
Ti       1.83556      9.74367      1.98906         1.775257      1.354040      2.504561
Ti       1.94607      9.71516     14.46274         0.756548      2.014155     -1.655845
Ti      13.84277      9.63495      2.41333        -0.300037     -1.063244     -0.746199
Ti      13.76787      9.65304     14.31736        -0.447637     -0.184936      0.199961
Ti       1.85706      9.63751      6.23532        -1.583759     -1.011895      3.999399
Ti      13.57741      9.54744      6.23896         0.216494     -0.350747      0.187022
Ti       1.97713      9.61627     10.57709         0.098364      0.821236      0.502630
Ti      13.74436      9.48399     10.48135         1.151800      1.864760      0.598185
Ti       5.87798      2.02667      2.09678        -0.223027     -1.330764      0.253852
Ti       5.82121      2.07080     14.30102        -0.161999     -1.554208      2.971392
Ti       5.90567     13.65562      2.23200        -0.930856      0.903474     -1.091062
Ti       5.52291     14.05170     14.25822        -0.850526     -0.322962      4.778345
Ti       5.90722      1.81387      6.22640        -1.893610     -0.239934      0.406581
Ti       5.72660     13.71579      6.29076         0.142396     -0.141381     -0.491742
Ti       6.13780      1.92874     10.51115        -3.491607      2.521854     -0.096340
Ti       5.96276     13.84463     10.16658        -1.941131     -1.971605      2.606666
Ti       5.84274      5.99364      2.13376        -0.570771     -1.716062     -1.927328
Ti       5.87261      5.72930     14.51602        -0.437366      1.211444      1.484050
Ti       5.65617      5.89036      5.95831         2.162620      2.543150      2.698301
Ti       5.84776      5.95355     10.53269        -1.567646     -1.978112      0.830329
Ti       5.76930      9.87666      2.21599        -0.200570      2.250801     -1.348441
Ti       5.71016      9.91139     14.63594        -0.425586     -0.772882      0.622805
Ti       5.72187      9.76064      6.09287        -0.796159     -1.653237      2.638636
Ti       5.86558      9.94786     10.62035        -1.036355     -1.323247     -1.062662
Ti       9.75253      1.92987      1.88535         0.772341     -3.773318     -2.120730
Ti       9.88853      1.87540     14.68469         0.245292     -0.149438      1.293531
Ti       9.98189     13.63178      1.81853        -3.583916      1.218982      0.294297
Ti       9.75486     13.58134     14.37842         3.433149      0.335855      1.454955
Ti       9.63561      1.90406      6.17380         1.817726      0.290598      1.254695
Ti       9.51529     13.45232      6.14430         0.913747     -0.051632      0.897625
Ti       9.59924      1.98435     10.06979         2.073847     -1.222649      4.187674
Ti       9.52921     13.42421     10.35011        -0.187285      2.219570     -0.528452
Ti       9.88317      6.05028      1.78437        -0.536278     -0.609091      0.828890
Ti       9.77805      5.79449     14.44271         1.108068      0.048002      1.947030
Ti       9.70679      5.63761      6.48690         0.833062      1.687209     -0.794063
Ti       9.60315      5.84668     10.61593         0.142389     -0.100227     -0.846878
Ti       9.61729      9.75389      1.78048         1.340715     -0.154102      3.881657
Ti       9.59951      9.60357     14.95039         0.744390      0.120481     -3.279117
Ti       9.64109      9.49728      6.09421         1.690990     -0.329541      2.187026
Ti       9.78219      9.62886     10.53144        -1.553581     -0.145675     -0.836944
O       2.09603      2.09697      0.50326        -0.630703     -0.195733      0.107662
O       2.05925      2.07364     12.91378        -1.093203     -0.327251      0.026879
O       2.01995     13.59590      0.55118        -1.591382      1.453865      0.499524
O       1.78970     13.64528     12.59817        -0.569747      0.115670      1.377867
O      14.00634      1.63190      0.38580        -1.099874      0.809304      1.225959
O      13.52127      1.95087     12.59745        -0.173225     -0.528263     -0.982398
O      13.61170     13.70964      0.23628        -0.106235     -0.897066      1.815504
O      13.54207     13.64713     12.89668        -0.087057     -0.245147     -1.405228
O       2.08399      2.05333      4.41320        -0.235923     -0.536651     -1.536512
O       1.94999     13.72040      4.37747        -0.042903     -0.072744      3.116492
O      13.62146      1.93847      4.40010        -0.609607      0.253771     -0.964008
O      13.54739     13.63551      4.42337        -0.177558     -0.590343     -2.808038
O       1.72223      1.87869      8.50828         0.044896      0.152139     -0.017239
O       1.98257     13.59625      8.45885        -1.387152      0.266174     -1.277649
O      13.19048      2.13246      8.60319         1.340599      0.137932     -1.164175
O      13.46859     13.46277      8.25314        -0.864327     -0.132790      1.326455
O       2.01151      6.17754      0.46194        -0.144174     -1.058493     -0.695733
O       2.00192      6.04514     12.90667        -1.146604     -1.839018      1.341514
O      13.90208      6.05252      0.32246        -0.952247     -0.820339      0.281436
O      13.78415      5.72427     12.80110        -0.160905      0.160087      0.625267
O       1.86113      5.87630      4.53233         0.281780      0.207079     -0.605143
O      13.82444      5.93123      4.38092        -0.546905     -0.267061     -1.225072
O       1.99924      5.73581      8.83737        -0.139271      0.130734     -2.799977
O      13.65687      5.65905      8.90948        -0.760594      0.090156      0.255944
O       1.56134     10.04760      0.21882         1.402532     -0.204218      0.396092
O       1.93712      9.75078     12.66911         0.691825     -0.040918      0.962521
O      14.00770      9.80443      0.38665        -1.225300     -0.422729      0.444204
O      13.69978      9.74511     12.49891        -0.506357      0.015937      1.641549
O       1.95234      9.56047      4.55959         0.221865      0.379621     -2.662658
O      13.54782      9.63321      4.36563        -0.494684     -0.149053     -0.495035
O       2.01413      9.51618      8.75999        -0.343107      0.051480     -0.919584
O      13.88381      9.49568      8.69141        -0.943415      0.292232     -0.366135
O       5.50807      1.90928      0.27933         1.411766      0.372983      0.599623
O       5.80215      2.00169     12.55546         0.481659     -0.123568     -0.771067
O       6.04107     13.51003      0.18986        -0.324928      0.782410      0.422693
O       5.74131     13.84894     12.58662         0.254657     -0.048488     -1.704282
O       5.88460      1.71964      4.47202         1.159525      1.032621     -0.114379
O       5.86197     13.85436      4.34214         0.154447     -0.767175      0.852824
O       5.91975      1.85845      8.69649         0.782404     -0.076521     -1.428458
O       5.87479     13.84408      8.39149         0.723708     -0.539495     -0.194032
O       5.81680      5.91792      0.22600         0.479458     -0.282406      0.610471
O       5.68047      5.27778     12.83635         0.547963      1.776077     -0.055127
O       5.85038      6.00658      4.17116         0.122401     -0.401221      0.059900
O       5.57256      5.87011      8.81129         0.597731     -0.331306     -1.410346
O       5.88317      9.60574      0.41173         0.094812      0.628574     -1.111982
O       5.59670      9.81119     12.64616         1.417782     -0.163511      1.363233
O       5.89420      9.58008      4.29681        -0.150093      1.032662     -0.649684
O       5.74882      9.79327      8.49577         0.507607     -0.185690      0.705553
O       9.92378      1.94916      0.06892        -0.787786     -0.110427      0.756436
O       9.62809      1.97993     12.74426         0.715368      0.135870      0.719281
O       9.77891     13.75284      0.04815         0.543773     -0.146045      0.518092
O       9.96054     13.39714     12.54040        -1.197889     -0.333558     -0.086916
O       9.88999      1.75278      4.29754        -0.170064      1.675440      0.172662
O       9.64762     13.43954      4.23794         0.441117     -0.305403      1.390355
O       9.75537      1.83791      8.37657        -0.848022      0.138279     -1.929735
O       9.62720     13.54743      8.53675        -0.269946     -0.158119     -0.504527
O       9.94934      5.65613      0.08767        -0.858011      0.841248      0.222111
O       9.54293      6.03054     12.69998         0.599131     -1.725879      0.096322
O       9.79280      5.61406      4.61056        -0.484241     -0.767611     -0.896881
O       9.77761      5.86401      8.84430        -0.927258      0.366248     -1.880919
O       9.74225      9.25971      0.09888        -0.010316      0.167054     -0.003295
O       9.59987      9.83405     12.67756         0.264705     -0.092869     -0.156858
O       9.66585      9.83404      4.29358         0.068820     -0.453918      0.202828
O       9.53441      9.55579      8.49592         0.012587      0.613990      1.821795
O       4.11212      2.05717      2.67394        -0.606823      0.397013     -0.851349
O       3.95252      1.93112     14.64609         0.404374      0.669306      0.455570
O       4.08904     13.48003      2.42517        -1.937125      0.802073     -0.380575
O       3.73263     13.89798     14.77486         1.994602     -0.570771     -0.913090
O      15.58082      1.82938      2.60829         0.748210      0.556012     -0.620737
O      15.46465      2.17336     14.74185         2.728026     -0.464787      0.218271
O      15.58381     13.83359      2.62711         0.071057     -0.720805     -0.656524
O      15.35077     13.63645     15.07867         2.171463      0.906715     -1.204696
O       3.94172      1.76400      6.53295         0.208066     -0.061790     -0.199796
O       3.84735     13.55094      6.65785        -0.708233     -0.027475     -1.217379
O       0.02151      2.16144      6.21337        -0.572944      0.036536      1.096325
O      15.34855     13.57705      6.61555         2.509753      0.197327     -0.659615
O       3.71342      1.79989     10.45222        -0.201306      0.571110      0.791751
O       3.82055     13.66189     10.15607         0.939492     -0.722110      1.334050
O      15.31204      1.64209     10.46722         1.656202      0.489910      0.019004
O      15.33405     13.80084     10.20576        -0.332421     -0.305222      0.641562
O       3.93862      5.88203      2.38217         0.559158     -0.290987      0.181324
O       3.93171      6.02651     14.92515        -0.511063     -0.372184     -0.345461
O       0.06531      5.78749      2.37589        -0.260738     -0.582080      0.266467
O       0.03779      5.90133     14.87489         2.044195     -0.542861      0.038955
O       3.90968      6.07006      6.32069        -0.581156     -0.302915      0.080766
O       0.02669      5.35968      6.53895        -0.045448      0.325828      0.083010
O       3.81247      5.83196     10.93656         0.173945      0.474126      0.098987
O      15.54741      5.88995     10.80214         0.697328     -0.307149      0.506810
O       3.87011     10.00761      2.27007         0.048751     -0.951487      0.167091
O       3.75736      9.85848     15.07230         2.713257      0.113149     -0.718989
O       0.21702      9.68413      2.77986        -2.655953      0.316525     -0.848036
O       0.06673      9.91121     14.55651        -1.682350      0.049247      0.630276
O       3.70009      9.72869      6.38065         3.508278     -0.790103     -0.112644
O      15.50944      9.82166      6.32694        -0.358201     -0.532532      0.465354
O       3.91972      9.58805     10.58590         0.386486      0.994097      0.122613
O       0.07676      9.58961     10.64498        -2.452425     -0.354754      0.263750
O       7.95957      1.67030      1.99778        -0.849081      0.859560      0.889773
O       7.81239      1.73903     14.84630         0.464688      1.415818     -0.684681
O       7.90500     13.64173      2.09426         0.732516      0.014591      0.553181
O       8.08114     13.55995     14.84825        -2.733311      0.536927     -1.169012
O       7.80118      1.95266      6.39618        -1.139296     -0.510833      0.274020
O       7.64794     13.71368      6.28656         2.177481     -0.855094      0.523330
O       7.87792      1.74157     10.79525        -0.583208      0.180944     -0.326450
O       7.68453     13.83847     10.53325         1.337009     -0.263837      0.021433
O       7.73945      5.88893      2.22996         2.135773     -0.643064     -0.080589
O       7.83670      5.59348     14.69950         0.444527     -0.057984      0.291079
O       7.61357      5.87630      6.41402         0.514559     -1.490808      0.845639
O       7.64253      5.92456     10.83358         1.759721     -0.478267      0.431158
O       7.74993      9.80851      2.50862        -0.018360     -0.319934     -1.232556
O       7.78506      9.66594     15.00182        -1.146812      0.566162     -0.946204
O       7.70821      9.59686      6.55140        -0.699487      0.431052     -1.193572
O       7.70024      9.61049     10.65139        -0.343177      0.284932      0.366559
O      11.74482      1.72364      2.05854         0.086264      0.953700      0.656471
O      11.74166      1.92171     14.89301         1.622472     -0.149909     -0.559324
O      11.68624     13.27842      2.19490         1.836132     -0.141786      0.703131
O      11.66945     13.35399     14.79514        -0.399374      0.514519      0.225297
O      11.68291      1.95123      6.40342        -1.007881      0.745819     -0.527319
O      11.52646     13.52016      6.31244        -1.337589     -0.728928     -0.226548
O      11.45533      2.13621     10.54575         0.561263     -0.298846     -0.135183
O      11.71274     13.50328     10.56737        -3.583715     -0.804975      0.541179
O      11.66614      5.98476      2.46577        -0.555516      0.021562     -1.031542
O      11.81187      5.84608     14.90652        -0.517918      0.844086     -1.008707
O      11.61619      5.88582      6.52937        -0.136081     -0.611269      0.126184
O      11.45140      5.55655     10.75343         1.961240      0.511758      0.645731
O      11.54520      9.34181      2.05845         0.180229      1.462571      0.659136
O      11.76179      9.60260     14.87489         1.163517     -0.700811     -0.674747
O      11.53233      9.72967      6.63292         0.262523     -0.108078     -1.212372
O      11.56753      9.91098     10.53421         1.056950     -0.319056      0.071277
O       2.09645      3.98921      2.65645        -0.165801     -0.202464     -1.354768
O       2.10937      3.89326     15.00558        -0.631229      1.547174      0.180436
O       2.12390      0.08947      2.42829        -0.339306      0.159358      0.171758
O       2.08722      0.12843     14.96159        -1.742598     -0.363730      0.339466
O      13.42538      3.79502      2.11852         0.890994      0.909159      0.271111
O      13.74913      3.92836     15.13793        -0.137960     -0.111309     -0.444302
O      13.54954     15.43910      2.50995        -0.374644      0.014055     -0.375342
O      13.75650      0.08730     14.74505        -0.680445     -1.948421      0.340568
O       2.43102      3.87859      6.39574        -1.274807     -0.697040      0.222750
O       1.64731      0.00694      6.45025         0.227102     -1.150193     -0.102123
O      13.48247      4.00432      6.51388        -0.192323     -2.219206      0.129735
O      13.40742     15.56917      6.44270         0.555593      0.502104     -0.266068
O       1.90419      3.81056     10.68495        -1.222422     -0.302731      0.574475
O       1.95010     15.52828     10.77787        -0.580036      0.838553     -0.766063
O      13.80522      3.76073     10.90615        -0.262784     -0.620493     -0.386460
O      13.15122      0.05161     10.40744         0.676041     -1.918605      0.213270
O       2.10626      8.01774      2.57328        -0.072162     -1.890313     -1.226237
O       1.92078      7.94400     14.86803         0.236285     -0.865002     -0.090593
O      14.09563      7.81310      2.17441        -1.216965      0.366858      0.832786
O      13.91344      7.87468     14.71688        -0.654988      0.151826      0.041857
O       1.57164      7.55933      6.64523         0.173009      1.832271      0.015352
O      13.85633      7.71395      6.66636        -0.565375     -0.301979     -0.468066
O       1.87639      7.73247     10.88876         0.167403     -0.172265     -0.369935
O      13.44406      7.67336     10.80586         0.107537      0.310966      0.247967
O       1.81879     11.70525      2.63374         0.907966     -0.160046     -1.301310
O       1.87162     11.94785     14.72429         0.021959     -1.639368      0.768547
O      13.99561     11.59065      2.38529        -0.599626     -0.083851      0.120537
O      13.65144     11.69155     14.73079         0.028173     -1.311474     -0.532445
O       1.89889     11.47104      6.61088        -0.203739      2.538013     -0.281685
O      13.68684     11.54240      6.47367        -1.072188      0.073854     -0.287077
O       1.81106     11.65749     10.46027         0.460787      0.076126      0.167020
O      13.68322     11.59895     10.66555        -0.445891      0.255836     -0.556410
O       6.15444      3.86248      2.32757        -0.564061      0.533278     -0.028589
O       5.81678      3.80773     14.97161         0.708448      0.876194      0.279890
O       5.67693      0.08826      2.16094         0.823663     -1.125706      0.421408
O       5.90648      0.19208     14.78193        -0.236715     -1.913599     -0.636861
O       5.50898      3.91788      6.43321         1.882247     -0.514886     -0.100124
O       5.73286     15.46776      6.45144         0.625315      2.624396      0.278346
O       5.66368      3.84858     10.64600         1.252959     -1.442452     -0.171350
O       5.62811      0.03415     10.55359         0.795858     -0.307145      0.015848
O       5.76774      7.81298      2.16367         0.456503      1.341831      0.966582
O       5.97445      7.79284     14.69271        -0.459457      0.134662     -0.201993
O       5.89911      7.77460      6.34094        -0.644885      0.695555     -0.314633
O       5.78380      7.81366     10.70090         0.034034      0.201904      0.272766
O       5.89909     11.86718      2.48107         0.882265     -3.452734      0.045414
O       6.08152     11.71893     14.46181        -1.078816     -0.410109      0.426987
O       5.65791     11.57352      6.20398         1.199365      1.180397      0.474907
O       5.71482     11.79900     10.62323         0.680990      0.122638     -0.263366
O       9.86683      3.73597      2.18288        -0.218307      2.393030     -1.125995
O      10.10563      3.73869     14.59304        -1.858821      2.119980      0.293977
O       9.93764     15.49505      2.39887         0.462863     -0.819001     -0.993429
O      10.05453     15.46841     14.45617        -1.029177     -0.168583     -0.305076
O       9.46528      3.74763      6.79097         1.163238      1.237135     -1.011076
O       9.80611      0.02842      6.39963        -0.951475     -1.146494     -0.525647
O       9.55228      3.78267     10.58485        -1.187639      1.228240      0.274831
O       9.72889     15.59005     10.55649         0.262446     -0.410649      0.184335
O       9.37100      7.79348      2.26333         1.303985     -0.826295     -0.244727
O       9.73953      7.79087     14.48290         0.133774     -1.188838      0.477313
O       9.63181      7.61275      6.33353        -0.514715      1.392169     -0.234179
O       9.80689      7.82727     11.02081         0.053594     -0.337002     -1.191359
O       9.64040     11.60160      1.87847         0.908975      0.045567      0.730568
O       9.93171     11.45231     14.77951        -0.955756      1.116943      0.007306
O       9.43737     11.47043      6.50926         0.654621      2.604954     -0.569468
O       9.36316     11.63208     10.51448         0.885783     -0.157174      0.105729
