  # total energy = -7881.71040307 
CRSYTAL
PRIMVEC
    15.464    0.0000000000000000    0.0000000000000000
     0.0000000000000000   15.464    0.0000000000000000
     0.0000000000000000    0.0000000000000000   17.350608
PRESSURE
0.139019 0.254603 -0.94875 -0.038931 -0.020282 0.044467
PRIMCOORD
320 1
Pb       3.84179      3.95262      4.32244         0.541015     -1.081947     -0.196788
Pb       3.86820      3.98259      0.00146         0.332007      0.049939     -0.641583
Pb       3.72603     15.36261      4.28585         0.779777      0.588817      0.298982
Pb       3.82833     15.40119     17.14484         0.419519     -0.113507      1.038113
Pb       0.19747      3.82934      4.36092        -0.968358     -0.514256      0.348993
Pb      15.42113      3.73409     17.34996        -0.300602      0.183581     -0.102583
Pb       0.16263      0.00655      4.29327        -0.475434     -0.707128      0.524793
Pb       0.00970     15.32797     17.24021        -0.273255      0.564212      0.176902
Pb       3.72126      3.92399      8.55424         0.392183     -0.071995      0.643465
Pb       3.74059     15.35489      8.80673         0.668899      0.368189     -0.839997
Pb      15.44029      3.72807      8.55108         0.074569      0.607927      0.715684
Pb       0.00715     15.43131      8.56341        -0.426936      0.269436      0.248088
Pb       3.64754      3.84899     12.93581         1.009866      0.315908      0.410881
Pb       3.75586     15.27652     12.98546         0.578907      0.651720      0.341968
Pb      15.43506      3.86254     12.96214        -0.058404      0.366925     -0.063491
Pb      15.43583      0.10051     12.96588         0.187684     -0.353249     -0.105818
Pb       3.74859      7.75939      4.26839         0.404399      0.160336      0.082496
Pb       3.64487      7.56474      0.12902         1.029521      0.599522     -0.668821
Pb      15.39871      7.71882      4.22394        -0.118375      0.322085      0.736601
Pb      15.44150      7.69399      0.07110        -0.318579      0.223641      0.010354
Pb       3.93688      7.79851      8.58778        -0.175207      0.068389      0.273262
Pb       0.17198      7.70378      8.47972        -0.795473      0.349741      1.121670
Pb       3.82260      7.64069     13.05542         0.545165     -0.003052     -0.010866
Pb       0.01009      7.86591     13.01209        -0.498026     -0.477624     -0.576975
Pb       3.82614     11.63715      4.29489         0.490266     -0.593017      0.324515
Pb       3.79566     11.64313     17.27783         0.814120     -0.467092      0.645418
Pb       0.06157     11.54758      4.27535        -0.479757      0.244425      0.415508
Pb       0.11722     11.61378     17.25247        -0.686164     -0.260158      0.668510
Pb       3.88606     11.64069      8.50437         0.001243     -1.468508      1.581099
Pb      15.40611     11.53232      8.58348        -0.398153      0.072158      0.645253
Pb       3.75516     11.57553     13.00937         0.504749     -0.165873      0.311065
Pb      15.42879     11.74143     12.85881        -0.120648     -0.383199     -0.298711
Pb       7.60049      3.80580      4.29587         0.351571      0.175598      0.227510
Pb       7.70122      3.97993     17.26157         0.162722     -0.512880      0.352216
Pb       7.81519     15.37560      4.32487         0.007720     -0.011626     -0.072745
Pb       7.62910     15.34309     17.21138         0.421605      0.167283      0.714865
Pb       7.63037      3.88880      8.71760         0.042351      0.033784     -0.381312
Pb       7.64703      0.14520      8.65843         0.177803     -0.872367      0.460549
Pb       7.57399      3.82264     12.90448         0.503977      0.457634      0.402822
Pb       7.77633      0.06446     12.93666         0.312079     -0.716396      0.213622
Pb       7.67806      7.74773      4.27463         0.311963     -0.585947     -0.101495
Pb       7.75356      7.69579     17.32605        -0.490359      0.554188      0.316448
Pb       7.73325      7.69962      8.62379        -0.087796      0.226596      0.611937
Pb       7.57716      7.74422     13.00523         0.162103     -0.280046      0.187730
Pb       7.80020     11.56668      4.28095        -0.107095      0.263311     -0.103362
Pb       7.74941     11.52235     17.25109        -0.317722      0.022776      0.763091
Pb       7.65292     11.59770      8.65318         0.625848     -0.333478      0.268453
Pb       7.70399     11.56660     12.97576         0.229841     -0.190351      0.609925
Pb      11.46815      3.86132      4.33602        -0.100203     -0.727696      0.266560
Pb      11.55851      3.87597      0.06539         0.040793     -0.247386      0.040586
Pb      11.65566     15.42988      4.20542        -0.224315      0.058410      0.871667
Pb      11.50953      0.05565     17.33188         0.310699     -0.223137     -0.014764
Pb      11.78005      3.91038      8.58529        -0.799500      0.170275      0.515721
Pb      11.58794     15.41787      8.69330        -0.030184      0.232426     -0.103965
Pb      11.58712      3.82468     13.03693         0.177525      0.460057     -0.650109
Pb      11.66015     15.43111     12.96311        -0.625990      0.043343     -0.062111
Pb      11.73919      7.69742      4.31551        -0.708701     -0.110126     -0.115025
Pb      11.73962      7.78123     17.22090        -0.495161     -0.130878      0.536602
Pb      11.63805      7.74877      8.66458        -0.320366     -0.108052      0.232534
Pb      11.58070      7.77939     13.08589         0.032150     -0.158657     -0.741050
Pb      11.67487     11.38751      4.30870        -0.360763      0.934907      0.241780
Pb      11.50366     11.52044     17.18279         0.450958      0.239161      0.701277
Pb      11.51893     11.51657      8.54248         0.291636     -0.173550      0.963770
Pb      11.64136     11.57446     12.91653        -0.290191     -0.181831     -0.118050
Ti       1.87653      1.90417      2.19961         1.400445     -0.895500      1.378691
Ti       1.97694      1.91550     15.37213        -0.925170     -0.013450     -1.378715
Ti       1.89376     13.40130      2.33150         0.623837      1.265571     -0.898922
Ti       1.92409     13.40728     15.24711         0.231111      1.457942     -0.249506
Ti      13.57997      1.90620      2.44395        -1.025545      0.327453     -1.114749
Ti      13.54006      1.88598     15.38109        -0.593366      0.181923     -0.596331
Ti      13.54262     13.54438      2.32766         0.052988     -0.722400     -0.289156
Ti      13.55907     13.44367     15.29413        -1.273886      0.923921     -0.962272
Ti       1.91707      1.91631      6.68344         0.006897      0.553722     -0.370535
Ti       1.93743     13.45985      6.74306        -0.445925      0.729634     -1.602401
Ti      13.42599      1.92567      6.65987         1.793256     -0.877891     -0.641288
Ti      13.48723     13.54971      6.65858         0.930230      0.239237     -0.406845
Ti       2.02765      1.92628     11.01497        -0.866456      0.313151     -0.891197
Ti       2.02821     13.53953     10.94979        -1.722663     -1.120982     -0.961454
Ti      13.60737      1.94941     11.07734        -1.057922      1.363241     -0.772627
Ti      13.48259     13.58836     10.90788         0.917918     -0.898204      0.874941
Ti       1.78844      5.76077      2.30986         1.364692     -0.119555      0.100272
Ti       1.79663      5.80680     15.35447         0.726283     -0.967892      1.502571
Ti      13.54655      5.72397      2.37289        -1.464805     -0.310136     -0.509276
Ti      13.55998      5.74134     15.43905        -0.786653     -0.065479     -0.894325
Ti       1.89829      5.84122      6.55218         0.076117     -0.103262      1.133219
Ti      13.50175      5.79493      6.59159         0.059333      0.872795      0.746448
Ti       1.90189      5.85227     10.92674        -0.311888     -0.042399      0.376030
Ti      13.52432      5.84798     11.01304         0.162320      0.403995      0.627654
Ti       1.84453      9.62173      2.32473         0.931782      0.389088     -0.735637
Ti       1.87230      9.56778     15.37516         1.309467     -0.246086     -0.572445
Ti      13.47049      9.70888      2.28314         0.600788     -0.100880      0.696065
Ti      13.65689      9.64944     15.30748        -1.559293     -0.620331     -0.676413
Ti       1.87141      9.70347      6.58054         0.797137     -0.416149     -0.841488
Ti      13.47529      9.59870      6.65114         0.198208      0.427051      0.253322
Ti       2.00728      9.65736     11.10379        -1.784518      0.334091     -2.341574
Ti      13.47703      9.68524     11.02967         0.508129     -0.236958     -0.019730
Ti       5.75717      1.86937      2.33796        -0.447086      0.024558      0.530067
Ti       5.83230      1.92677     15.35484        -0.357469      0.474867      0.454033
Ti       5.75384     13.50636      2.39132         0.718526     -0.563554     -2.271527
Ti       5.78225     13.43126     15.33273         1.017841     -0.040175     -0.905332
Ti       5.68963      1.86533      6.79561        -0.318183      0.276778     -1.626859
Ti       5.85023     13.45246      6.77568         0.243441      0.479070     -1.246668
Ti       5.79644      1.85331     11.04895        -0.330798      0.772311     -0.165689
Ti       5.85488     13.46093     11.10626        -0.024904      0.186093     -0.230925
Ti       5.75398      5.81252      2.36127         0.545326     -0.677982     -0.005076
Ti       5.77524      5.85940     15.28836        -0.929954     -0.310056     -1.172771
Ti       5.74993      5.71652      6.63744         0.305046      0.229229      0.554688
Ti       5.80193      5.75626     11.04031        -0.611140      0.660185     -0.569204
Ti       5.79568      9.68777      2.37897        -0.010111     -0.127369     -0.840485
Ti       5.68518      9.62051     15.40010         0.015196     -0.754454     -0.428004
Ti       5.78429      9.53099      6.54564        -0.277506      1.494140      0.150196
Ti       5.66151      9.66861     11.07616         0.606072     -0.962364      0.446219
Ti       9.59837      1.94604      2.34561         0.126455     -0.089181     -0.849184
Ti       9.66956      1.95044     15.32421         0.124864      0.145909     -0.388982
Ti       9.74199     13.49229      2.35857        -0.419111     -0.303475      0.110343
Ti       9.71419     13.45243     15.29296         0.016995      0.448577     -1.383879
Ti       9.61918      1.89291      6.84509        -0.436175      0.544701     -0.732533
Ti       9.70631     13.51064      6.75563        -0.867625     -0.446880     -1.803732
Ti       9.70234      1.93496     11.04553        -0.070181     -0.243784     -1.369850
Ti       9.67809     13.39039     10.98448        -1.528551      0.454146     -0.199567
Ti       9.69935      5.81508      2.33721        -0.842751     -1.039134      1.071234
Ti       9.62906      5.83172     15.36379         0.733214     -0.621153     -0.342674
Ti       9.58676      5.72649      6.72145         0.191181      0.061222      0.006316
Ti       9.65356      5.74892     10.88353         0.646858      0.861586      1.167880
Ti       9.66870      9.63922      2.34232        -0.472702     -0.155949     -1.038222
Ti       9.60049      9.57120     15.37643         0.124564      0.744382     -1.531198
Ti       9.57316      9.58011      6.69717         0.368803      0.292632      0.137900
Ti       9.54665      9.56682     11.08596         0.609692      0.016253     -2.440321
O       1.75422      1.93785      0.48088         0.525017     -0.338737     -1.098258
O       1.76285      1.81311     13.52639         0.510588      0.275365      1.184734
O       1.99498     13.42589      0.53512        -0.271824     -0.068815     -0.446832
O       1.97739     13.58521     13.48093        -0.207079     -0.224274      0.226116
O      13.39812      1.97028      0.66402         0.644508     -0.008802      0.275479
O      13.53598      1.90535     13.56170        -0.107573     -0.271594      0.161148
O      13.42745     13.32549      0.57165         0.552190      0.435010      0.209469
O      13.56416     13.57805     13.47638        -0.430048      0.026292      1.136734
O       1.94349      2.05575      4.91957        -0.332424     -0.256589     -0.626917
O       1.99687     13.45870      4.86885        -0.220246     -0.317665      1.352607
O      13.52489      1.84106      4.92578         0.234427     -0.181810     -0.543069
O      13.70638     13.67126      4.92062        -0.324995     -0.291283      0.123333
O       2.06050      2.05370      9.22391        -0.386441     -0.659718      0.590178
O       1.99169     13.39933      9.14502         0.002317      0.865812      0.362791
O      13.61620      2.13932      9.32281        -0.509560     -0.331331     -0.588334
O      13.58374     13.50135      9.18927        -0.457286      0.256347     -0.594580
O       1.82943      5.81020      0.53694         0.271604     -0.271151      0.615600
O       1.78908      5.76269     13.66108         0.054489      0.007856     -1.558790
O      13.45733      5.65942      0.60751         0.412960      0.190418      0.532553
O      13.50299      5.91922     13.67666         0.060521     -0.432950      0.175966
O       1.82180      5.83116      4.80446         0.244165     -0.472222     -0.619905
O      13.55962      5.98064      4.86749        -0.222845     -0.136284     -0.909504
O       1.82824      5.82189      9.16892         0.386813      0.345837      0.035479
O      13.61867      5.83947      9.29381        -0.194950     -0.231663     -1.614366
O       1.82222      9.65250      0.54014         0.268075      0.103549      0.183374
O       1.78287      9.57317     13.60339         0.426868      0.207585      0.295059
O      13.50683      9.79013      0.58060         0.130767     -0.075319     -1.530631
O      13.51812      9.45074     13.52745         0.369461      0.731833      0.984944
O       1.92148      9.74147      4.77347        -0.146600     -0.106027      0.566471
O      13.54447      9.57788      4.88314        -0.339873     -0.148144     -0.311652
O       2.03497      9.65833      9.27857        -0.149719     -0.326139      0.747009
O      13.47892      9.75956      9.28714         0.112257     -0.171021     -1.209812
O       5.78947      1.74495      0.61947        -0.094203      0.253102     -1.445133
O       5.78004      2.07335     13.65988         0.185128     -0.404526     -1.190943
O       5.69830     13.43572      0.54263         0.177165      0.558763      0.597916
O       5.80730     13.48454     13.54478        -0.161032     -0.119481      0.740156
O       5.66107      1.90332      5.01458         0.348365      0.015157      0.367259
O       5.79756     13.41758      5.00040         0.142014      0.151312     -0.305313
O       5.70333      1.93312      9.29444         0.095921     -0.359213     -0.005466
O       5.75355     13.46624      9.34162         0.124025     -0.052600     -0.250845
O       5.56573      5.85191      0.58388         0.356688      0.029113      0.013646
O       5.75262      5.77266     13.46116         0.085422      0.132434      1.141065
O       5.80264      5.68086      4.88950        -0.380053     -0.048901     -0.506062
O       5.80767      5.84782      9.26071        -0.079001     -0.253752      0.367819
O       5.81305      9.55527      0.60663        -0.036887     -0.054805     -0.069352
O       5.68223      9.44874     13.63574         0.055805      0.711164      0.042975
O       5.83589      9.69922      4.77422         0.036871     -0.449653      0.514790
O       5.59390      9.58596      9.35038         0.235014      0.344027     -0.874854
O       9.60705      1.96576      0.56062         0.224753     -0.069500      0.520033
O       9.68470      1.95720     13.50070         0.166267      0.009218      1.229240
O       9.91431     13.41790      0.62420        -0.238163      0.266034     -0.373183
O       9.71258     13.45216     13.47402         0.029702      0.032295      1.306336
O       9.50411      1.91143      5.11086         0.188179     -0.319025     -0.614037
O       9.70492     13.49118      4.90347        -0.453300     -0.041798      1.252525
O       9.66441      1.92107      9.22958        -0.011575     -0.035573      0.367276
O       9.57457     13.23807      9.22106         0.329276      0.858272     -0.221741
O       9.65678      5.75106      0.61328        -0.093679      0.102111     -1.099390
O       9.65791      5.95962     13.62973         0.355596     -0.508283      0.111804
O       9.56462      5.69077      4.97230         0.259729      0.273948     -0.140253
O       9.69033      5.77527      9.14026        -0.404980     -0.126398     -0.296171
O       9.65640      9.65635      0.56263        -0.075520     -0.281373     -0.379053
O       9.56284      9.49937     13.58886         0.313721      0.146174      0.080790
O       9.66454      9.64532      4.92792        -0.155879     -0.241194     -0.287519
O       9.44573      9.60304      9.18402         0.499805      0.109328      1.613168
O       3.85317      1.90458      2.69104        -1.020673      0.414757     -0.063928
O       3.85244      1.90280     15.61919        -0.211380      0.024073      0.481249
O       3.89662     13.27356      2.69155        -0.728559      0.333915      0.216466
O       3.91402     13.57622     15.61222        -1.212603     -0.584176      0.080687
O       0.07425      1.65153      2.70658        -0.336142      0.976131     -0.164287
O      15.35863      1.87412     15.78227         1.221869     -0.594892      0.172354
O       0.03945     13.53381      2.67751        -0.366633     -0.016961      0.072039
O      15.45832     13.48695     15.61325         0.612523      0.051687      0.252089
O       3.75547      1.91898      7.04484         0.694298      0.318349      0.647495
O       3.86162     13.40027      7.13212        -0.843535      1.098186     -0.613220
O      15.39349      1.92239      7.11927         0.432685     -0.102332     -0.189004
O       0.01593     13.62242      7.14890         0.208387     -0.634742     -0.425530
O       3.86529      1.87824     11.50725         0.027024     -0.168017     -0.179255
O       3.86559     13.52110     11.34399         0.184552      0.374373      0.432000
O      15.43842      1.94021     11.33476         1.108484     -0.323226      0.508750
O      15.40539     13.57659     11.31310         0.623998     -0.046703      0.051270
O       3.77245      5.70973      2.76656        -0.516307     -0.046865     -0.368668
O       3.78884      5.82759     15.70186        -0.455625     -0.521203      0.420178
O      15.38979      5.80434      2.80605         1.037992      0.306086     -0.475381
O      15.37859      5.88321     15.92919         0.913538     -0.744164     -0.363383
O       3.83988      5.74495      7.03015        -0.843221      0.599704     -0.501656
O      15.45460      6.00301      6.96325         0.300698     -0.947052     -0.380558
O       3.85383      5.72561     11.41887        -0.936546      0.115713     -0.088457
O       0.04830      5.85238     11.37353         0.229997     -0.300794      0.307024
O       3.91527      9.72200      2.67429        -1.196951     -0.308438      0.294585
O       3.78901      9.63875     15.77585        -0.588026      0.017032      0.081898
O      15.45435      9.53012      2.64829        -0.060037      0.164107      0.220499
O       0.03036      9.63068     15.86357        -0.319214      0.189885     -0.349941
O       3.89130      9.74476      6.96353        -0.420267     -0.329653     -0.182951
O      15.43909      9.66922      6.96665         0.176179     -0.073536      0.094714
O       3.81150      9.70569     11.58328         0.279860     -0.165438      0.137473
O      15.44397      9.78910     11.44121         0.740396     -0.367058      0.058740
O       7.68297      1.81230      2.66133         0.168101     -0.188272      0.675096
O       7.69785      2.05183     15.66537         0.709025     -0.598338      0.249852
O       7.82317     13.49323      2.57694        -0.646513      0.409550      0.710188
O       7.83305     13.44449     15.78181        -0.559936      0.096768     -0.277300
O       7.64121      1.95280      7.15398        -0.079388     -0.015106      0.347477
O       7.74116     13.56536      7.14351        -0.447593     -0.656567     -0.096127
O       7.75203      1.90219     11.45084        -0.834222      0.268639     -0.188315
O       7.69276     13.38144     11.49790         0.292042      0.407128     -0.363032
O       7.71362      5.71797      2.69546        -0.410109      0.812950     -0.133552
O       7.72997      5.87201     15.69484        -0.778777     -0.348075      0.317469
O       7.63582      5.72241      7.02613         0.650957      0.067424      0.437565
O       7.70625      5.83929     11.44003        -0.053387      0.123390     -0.505490
O       7.75735      9.52423      2.64098         0.075245     -0.320732      0.664556
O       7.62676      9.69206     15.69442         0.857208     -0.731476      0.422251
O       7.64046      9.70733      7.03139         0.498011     -0.484091     -0.197411
O       7.68053      9.54763     11.47656        -0.355339      0.372471     -0.202104
O      11.57778      1.93999      2.87093        -0.284853      0.233996     -0.452785
O      11.64033      1.99202     15.79396        -0.947522     -0.129480     -0.358622
O      11.72937     13.40171      2.90121        -0.802204      0.148155     -0.468104
O      11.60523     13.48981     15.72366         0.238398     -0.387583     -0.416340
O      11.63165      1.91671      7.03699        -1.329709     -0.109171      0.676714
O      11.58390     13.68031      7.03292        -0.159180     -0.534677      0.323334
O      11.55732      1.95697     11.35279         0.203260      0.186358      0.575166
O      11.47833     13.44853     11.27059         2.264587      0.426982      0.334260
O      11.62764      5.56849      2.78795        -0.016004      0.634185     -0.180529
O      11.61605      5.67850     15.90251        -0.169875      1.094622     -0.710476
O      11.58405      5.89663      7.02359         0.645757     -0.449288     -0.037112
O      11.63650      5.71825     11.25129        -0.837790      0.139546      0.488548
O      11.57864      9.67772      2.62791         0.168778      0.098462      0.662647
O      11.59614      9.63396     15.62536         0.291176     -0.544325      0.179004
O      11.56730      9.62328      7.03742         0.149641     -0.252277     -0.034966
O      11.59353      9.65382     11.36779        -0.591415      0.398606      0.591446
O       1.73466      3.77212      2.59180         0.340340      1.055236      0.108870
O       1.80849      3.81362     15.70268         0.175471     -0.104774      0.145679
O       2.07145     15.30870      2.66039        -0.330820      0.888366     -0.064845
O       1.92638     15.41561     15.71389        -0.334651     -0.196701     -0.054389
O      13.66178      3.76493      2.85510         0.214639      0.946262     -0.095657
O      13.64313      3.82633     15.70924        -0.306746      0.038605      0.006881
O      13.53648      0.00872      2.66084        -0.247941     -1.142367      0.180332
O      13.44397     15.38593     15.83026         0.490170      0.010572     -0.404114
O       1.86919      3.89829      7.04120        -0.226099      0.679062     -0.468592
O       1.88961      0.06705      6.88393         0.215637     -1.806303      0.872421
O      13.56645      3.90131      6.86728        -0.130068      0.227224      0.527559
O      13.48494     15.45250      7.15611         0.241276      0.487927      0.355649
O       1.91570      3.81702     11.37196        -0.157415      0.527491      0.054200
O       1.93640     15.43871     11.30609         0.137725      0.098305      0.037085
O      13.51107      3.92133     11.49128         0.326600     -0.622968      0.366215
O      13.41969      0.06232     11.31048         0.023218     -0.988101      0.078461
O       2.03139      7.70100      2.63656        -0.587764     -0.386939      0.004635
O       1.83950      7.65472     15.80253         0.016151      1.052685     -0.013041
O      13.39139      7.76855      2.58933         0.456571     -1.218364      0.434949
O      13.62118      7.74414     15.84345        -0.462592      0.172353      0.044534
O       2.01793      7.80238      6.81192        -0.220817     -0.483165      0.594027
O      13.53103      7.76287      7.06377        -0.160037     -0.139388      0.078248
O       1.98394      7.78173     11.48504        -0.198015     -1.087157     -0.550204
O      13.55273      7.79632     11.38079        -0.056668     -0.828678      0.100895
O       1.84516     11.54357      2.61708        -0.059539     -0.613187      0.468392
O       1.97189     11.55846     15.57414        -0.337928      0.483965      0.339253
O      13.65691     11.54716      2.82507        -0.300983      0.259019     -0.055644
O      13.58819     11.52486     15.53064         0.025078      0.633283      0.213415
O       1.76867     11.56212      7.06559         0.736741      0.575738     -0.421122
O      13.47498     11.64165      6.96031         0.090172     -0.480693      0.087643
O       2.07162     11.61498     11.29878        -0.787008      0.669808      0.778627
O      13.54789     11.63192     11.41730        -0.499964      0.692371      0.198200
O       5.81413      3.84519      2.64072        -0.481154     -0.306576      0.263919
O       5.76241      3.97922     15.75380        -0.153365     -1.084385      0.477825
O       5.60813     15.33381      2.79061         0.758698      0.633103      0.047817
O       5.87693     15.35165     15.67495        -0.177350      1.123369      0.043383
O       5.68893      3.88305      7.13422         0.248137     -0.725651      0.056802
O       5.65370     15.42611      7.17231         0.285800      0.025752      0.269576
O       5.75746      3.82082     11.36459         0.315774     -0.167323      0.130292
O       5.86099     15.42678     11.46899        -0.351357      0.001681     -0.144167
O       5.69068      7.62363      2.92229         0.299905      0.632556     -0.602494
O       5.61775      7.69118     15.63128         0.783166     -0.076854      0.783788
O       5.80837      7.69509      7.07502        -0.349842      0.267891     -0.595249
O       5.61439      7.76872     11.38623         0.316371     -0.816986      0.360831
O       5.93196     11.56166      2.60704         0.070268     -0.170470      0.768827
O       5.80732     11.52896     15.74799        -0.507302      0.891386     -0.083503
O       5.82924     11.56693      7.06457        -0.129636     -0.190625      0.075486
O       5.74711     11.52814     11.63155        -0.084567      0.551176     -0.654766
O       9.51415      3.82671      2.84849         0.763022     -0.470417     -0.306007
O       9.67265      3.87930     15.82185        -0.324993     -0.257568     -0.540118
O       9.68662     15.43485      2.73432         0.352607      0.032700      0.018107
O       9.73735     15.45092     15.66804        -0.408115      0.460015      0.005184
O       9.65688      3.84141      7.08440         0.141263     -0.127451      0.479960
O       9.46925     15.37344      7.13440         1.126236      1.021849      0.284820
O       9.55382      3.93359     11.31881         0.298937     -1.093769      0.374193
O       9.57663     15.41759     11.32754         0.276443      0.134916      0.178613
O       9.72727      7.61770      2.72333         0.129762      1.021502      0.232283
O       9.54322      7.72450     15.76142         0.822455     -0.225431      0.492899
O       9.58207      7.68055      7.19031         0.040078      0.436467     -0.787849
O       9.81209      7.70942     11.28706        -0.630977     -0.352478      0.291635
O       9.60387     11.50707      2.65304         0.461911      0.406570      0.627170
O       9.67774     11.50696     15.65960        -0.116836      0.607477      0.095383
O       9.75653     11.51417      7.08938        -0.867042      0.578669     -0.505713
O       9.62857     11.51335     11.31387        -0.105206     -0.307777      0.907423
