  # total energy = -7882.14659578 
CRSYTAL
PRIMVEC
    15.464    0.0000000000000000    0.0000000000000000
     0.0000000000000000   15.464    0.0000000000000000
     0.0000000000000000    0.0000000000000000   17.350608
PRESSURE
-0.036865 -0.279978 -0.935104 -0.364219 -0.019572 -0.025666
PRIMCOORD
320 1
Pb       3.86053      4.01101      4.26707         0.211089     -0.775819      0.980368
Pb       3.88068      3.96815      0.06286         0.111727     -0.747842      0.062312
Pb       3.77428     15.38540      4.27885         0.870507      0.154890     -0.255994
Pb       3.85435     15.43194     17.16800         0.477450     -0.337637      0.590394
Pb       0.18024      3.78280      4.36439        -0.478522     -0.086693     -0.244575
Pb       0.00401      3.73548     17.31747        -0.759603      0.396412      0.395050
Pb       0.15742     15.44117      4.31155        -1.132140      0.331842     -0.233467
Pb       0.05413     15.35039     17.26875        -0.900807      0.182133      0.401488
Pb       3.73428      3.95308      8.61646         0.490823     -0.239671     -0.093543
Pb       3.74639     15.35961      8.73223         0.609160      0.270895      0.198747
Pb       0.01800      3.73120      8.63372        -0.575749      0.362370     -0.129238
Pb      15.41052     15.35915      8.53146        -0.179039      0.613523      1.209915
Pb       3.68192      3.83082     12.95975         0.763252     -0.079587     -0.048113
Pb       3.78417     15.28715     13.01616         0.587308      0.739568     -0.167523
Pb       0.08171      3.91517     12.97695        -1.169858      0.174702      0.386536
Pb       0.00971      0.14049     12.94896        -0.513839     -0.403203      0.285049
Pb       3.70939      7.84242      4.30627         0.953482     -0.301473      0.161204
Pb       3.65761      7.57815      0.02806         0.657630      0.624290      0.011246
Pb      15.36295      7.70700      4.24055         0.569834     -0.134098      0.247205
Pb      15.41155      7.66790     17.33144        -0.024987     -0.364281     -0.065808
Pb       3.99990      7.84794      8.56325        -0.478351     -0.125852      0.426812
Pb       0.16250      7.63409      8.52276        -0.655271      0.620539      0.899451
Pb       3.76918      7.60646     13.06104         0.299866      0.424757     -0.297750
Pb       0.03515      7.88867     12.98941        -0.675972     -0.612504      0.283419
Pb       3.78643     11.64039      4.24156         0.645308      0.062041      0.368681
Pb       3.77579     11.60097     17.26999         0.730691      0.104465      0.104406
Pb       0.02141     11.55812      4.25089        -0.095204      0.141030      0.436110
Pb       0.08348     11.59796     17.21180        -0.311397     -0.231705      0.353411
Pb       3.83355     11.61291      8.45227         0.324690      0.050867      1.440778
Pb      15.36851     11.48654      8.60105         0.243189     -0.159114     -0.175568
Pb       3.76438     11.52159     13.02000         1.010597     -0.215817     -0.113842
Pb      15.46126     11.85683     12.87777        -1.001181     -1.387903      1.373148
Pb       7.63065      3.78691      4.27062        -0.076093      0.378172      0.548195
Pb       7.73072      3.97204     17.28643        -0.033685     -0.315177      0.348721
Pb       7.79315     15.42457      4.30240        -0.293095     -0.201003      0.316703
Pb       7.66829     15.37910     17.24314         0.013620      0.387853      0.550466
Pb       7.68311      3.90029      8.76742        -0.012791      0.094541     -0.247633
Pb       7.62472      0.14418      8.67182         0.175644     -0.655577      0.571138
Pb       7.59777      3.81146     12.92188         0.560579      0.238769      0.032229
Pb       7.81097     15.46322     12.93680         0.004173     -0.143525     -0.023762
Pb       7.65905      7.75541      4.31527         0.057246     -0.318473      0.254194
Pb       7.70514      7.64884     17.28953         0.180715     -0.082566      0.266538
Pb       7.81020      7.73904      8.65407        -0.178257      0.058508     -0.124235
Pb       7.51858      7.67681     12.97815         1.001743     -0.116245      0.570467
Pb       7.78365     11.57719      4.20646        -0.054963      0.227177      0.926793
Pb       7.73035     11.49060     17.29297        -0.154845     -0.140573     -0.084000
Pb       7.58620     11.61943      8.65608         0.030525     -0.091554      0.201633
Pb       7.75512     11.54221     13.06370        -0.209166     -0.000452     -0.499088
Pb      11.51858      3.78999      4.29040        -0.024559      0.079876      0.082542
Pb      11.58048      3.89439      0.06517         0.038811      0.123420      0.202053
Pb      11.63594     15.39485      4.22953         0.005539     -0.065996      0.377803
Pb      11.51268      0.12458     17.32933         0.334343     -0.328353      0.701076
Pb      11.69376      3.93542      8.56051        -0.318656     -0.851732      0.240839
Pb      11.54200     15.41074      8.65570        -0.013676      0.487193     -0.012593
Pb      11.59825      3.86412     13.04112        -0.206256      0.196115     -0.004947
Pb      11.71536     15.40925     12.95305        -0.589270     -0.154250      0.363937
Pb      11.72789      7.69653      4.33937        -1.418584      0.200500      0.037750
Pb      11.72628      7.82958     17.21788        -0.885780     -1.061109      0.828008
Pb      11.69933      7.70753      8.67343        -0.700689      0.264995      0.002302
Pb      11.57287      7.83284     13.03480         0.033570     -0.614333     -0.076477
Pb      11.66047     11.40555      4.26564        -1.064022      0.843828      0.655775
Pb      11.51465     11.52457     17.18368         0.216740     -0.074427      0.770130
Pb      11.43909     11.48025      8.58735        -0.058528      0.345543     -0.196324
Pb      11.63750     11.59895     12.96867        -0.486431      0.262183      0.329368
Ti       2.03823      1.86522      2.23488        -0.851308      0.257051      2.085866
Ti       1.83809      1.88255     15.38115         1.440570      0.067452     -1.472314
Ti       1.92572     13.48960      2.24365         0.350131     -0.340843      0.576842
Ti       1.93091     13.53213     15.18603         0.284634     -0.749242      1.043918
Ti      13.56611      1.94036      2.34155        -0.259664     -0.958052     -1.018398
Ti      13.45368      1.91662     15.30366         0.246227     -0.470186      0.959535
Ti      13.55834     13.45289      2.40340        -0.305734      1.026154     -0.767617
Ti      13.48241     13.52671     15.40510        -0.206053      0.005762     -1.648203
Ti       1.91705      1.93378      6.70366         0.104493      0.274018     -0.555296
Ti       1.87865     13.59167      6.60027         0.683664     -1.535745     -0.351874
Ti      13.56353      1.88761      6.63547        -0.800447      0.782391      0.359205
Ti      13.53502     13.57569      6.65493        -1.634063     -0.798184     -0.507160
Ti       1.85234      1.92660     11.04269         0.028811     -0.420641     -0.944940
Ti       1.83908     13.46614     10.98551         1.702249      0.961593      0.121858
Ti      13.44871      2.01992     11.04970         0.499246     -0.856748     -0.040800
Ti      13.50546     13.52689     10.88277        -1.083372      0.517440      0.542832
Ti       1.90105      5.76879      2.37050        -0.527084     -0.055276     -1.142063
Ti       1.87119      5.65966     15.31774        -0.453544      1.367069      1.027995
Ti      13.40821      5.76489      2.49750         0.462960     -0.208285     -2.575502
Ti      13.49674      5.74576     15.37849         0.355047      0.031869     -0.673135
Ti       1.86629      5.88137      6.62637         0.594163     -1.609423     -0.465216
Ti      13.47816      5.91633      6.65593         0.509918     -1.547104     -0.086241
Ti       1.93578      5.82150     10.92189        -0.788711      0.634937     -0.048602
Ti      13.57286      5.80090     10.95119        -0.509916     -0.154862      0.946913
Ti       1.91821      9.64748      2.29076        -0.458039     -0.039324     -0.471886
Ti       2.02633      9.57745     15.34354        -0.755691     -0.194365     -0.218707
Ti      13.53153      9.67267      2.31031        -0.864751     -0.741272      0.740601
Ti      13.59653      9.65496     15.36140         0.344837     -0.272584     -1.743590
Ti       1.95127      9.72293      6.54584        -0.096440     -0.181211      0.354021
Ti      13.53888      9.68049      6.64527        -0.333702     -0.034315      1.369667
Ti       1.81622      9.65227     11.00095         1.259312     -0.516673     -1.310771
Ti      13.47929      9.69271     11.00710         0.096442     -1.099283      1.564833
Ti       5.72336      1.87289      2.27537         0.624009      0.044865      2.123017
Ti       5.78150      1.93372     15.35289        -0.059948     -0.411572      0.121722
Ti       5.84886     13.52626      2.25964        -1.079861      0.227094     -0.426412
Ti       5.87793     13.45758     15.34348        -0.868793     -0.401117     -1.044710
Ti       5.66590      1.95080      6.69931         0.253422      0.639138      0.031436
Ti       5.76195     13.61192      6.64389         0.660029     -0.821493     -0.058357
Ti       5.69014      1.88706     11.06255         0.691117     -0.491763     -0.051983
Ti       5.80571     13.47832     11.10113         0.591682     -0.671677     -1.383030
Ti       5.78018      5.80567      2.36191         0.168623      0.103433      0.065521
Ti       5.69154      5.72843     15.38946         0.923038      1.151716     -1.641925
Ti       5.76362      5.83199      6.74680         0.658565     -0.481403     -1.251760
Ti       5.78854      5.78472     10.97795         0.324527     -0.271635     -0.182594
Ti       5.71305      9.68362      2.33504         0.793712     -0.672469      0.041216
Ti       5.78081      9.57111     15.43848         0.194881      0.394197     -0.773782
Ti       5.76653      9.73007      6.59639         0.592086     -1.041013     -1.379562
Ti       5.67858      9.64027     11.08442         0.370324      0.886886     -0.152306
Ti       9.61415      1.88388      2.42812         0.505566      0.394033     -0.907748
Ti       9.64481      1.94494     15.36395        -0.522218     -0.580078     -1.361434
Ti       9.69817     13.46966      2.26609        -0.113834      0.004068      0.811094
Ti       9.73836     13.53989     15.39761        -0.655908     -0.024360     -1.111458
Ti       9.58381      1.92002      6.69715         0.801572      0.090299     -0.007789
Ti       9.62988     13.50203      6.72065        -0.194789     -0.264018     -1.050429
Ti       9.68864      1.97681     10.95556        -0.077760     -0.453714      0.148949
Ti       9.68542     13.54197     10.95757        -0.519417     -0.470790     -0.076866
Ti       9.58704      5.76003      2.31565         0.682438      0.526106     -0.399618
Ti       9.70314      5.71514     15.32980        -0.672056      1.534603     -0.719060
Ti       9.60777      5.74010      6.72435        -0.364143      0.594138     -0.293758
Ti       9.70025      5.77088     11.01657        -0.401597     -0.224939     -0.083892
Ti       9.57784      9.55890      2.27803         1.197940     -0.335713      0.425970
Ti       9.65206      9.55782     15.30335        -0.610748     -0.315467      0.877886
Ti       9.65071      9.58381      6.60360        -0.640903      0.451946      1.280653
Ti       9.59385      9.61716     10.99261        -0.200285      0.437999     -0.146260
O       2.00369      1.72304      0.54434        -0.457944      0.410532     -1.513603
O       1.91826      1.82737     13.55179        -0.146223      0.252573      1.194262
O       1.92849     13.39859      0.49665        -0.244298      0.217517     -0.367278
O       1.92710     13.54419     13.42292        -0.149663      0.006828      0.258758
O      13.59549      1.83822      0.52700        -0.233540      0.248965      0.831795
O      13.48542      1.83569     13.56727         0.221910      0.327367      0.023373
O      13.56899     13.44027      0.63388        -0.010961     -0.002452      0.209615
O      13.24482     13.45573     13.59744         1.135690     -0.117657      1.263675
O       1.86411      1.84634      4.90388         0.135563     -0.039629      0.356193
O       1.91520     13.40435      4.81186        -0.044721      0.828698      1.207758
O      13.66313      1.67753      4.90354        -0.273950      0.634492     -0.219558
O      13.58519     13.55097      4.88686        -0.124642     -0.011411      0.143764
O       1.78685      2.00032      9.25587         0.244846     -0.162917      0.852553
O       2.02373     13.45162      9.24602        -0.542055     -0.048940      0.025980
O      13.46619      1.96718      9.28589         0.418251      0.191196      0.262344
O      13.51023     13.57844      9.12558         0.227269     -0.553174      0.539356
O       1.99805      5.85471      0.55325        -0.570150     -0.397639      1.002254
O       1.87394      5.85202     13.58821         0.141843     -0.504374     -0.723632
O      13.46755      5.90558      0.64416        -0.261783     -0.621087      1.147134
O      13.65124      5.65779     13.63496        -0.368853      0.211103      0.534298
O       1.92786      5.67759      4.85306        -0.171339      0.589025     -0.056895
O      13.38107      5.91487      4.88060         0.448712     -0.184500     -0.013351
O       1.88885      5.90101      9.14801        -0.013139     -0.559523      0.176850
O      13.58414      5.73787      9.18714        -0.087057      0.228845     -0.111822
O       1.93643      9.65534      0.50129        -0.110428     -0.032076      0.582293
O       2.04680      9.58793     13.53441        -0.483453     -0.015171      1.232341
O      13.37221      9.58612      0.59861         0.509879      0.177864     -1.342839
O      13.71947      9.65130     13.56284        -0.486419     -0.021547      0.865159
O       2.03349      9.67331      4.75465        -0.331189     -0.093453      0.910693
O      13.49707      9.56075      4.94439         0.156829      0.106988     -1.320957
O       1.88050      9.62126      9.17767         0.045501      0.299988      1.337196
O      13.49712      9.64217      9.29789        -0.097942      0.214669     -1.401134
O       5.70056      2.05612      0.58953         0.159274     -0.236157     -1.501050
O       5.89432      1.84345     13.60800        -0.446487      0.667810     -0.282940
O       5.67808     13.52605      0.46326         0.679589     -0.206893      0.972669
O       6.03638     13.32599     13.55030        -0.827660      0.612865      0.990678
O       5.57816      2.01802      4.94310         0.309056     -0.539986      1.155009
O       5.74482     13.53562      4.88430         0.002022      0.431980      0.645274
O       5.66645      1.70866      9.32501        -0.013050      0.379956      0.121393
O       5.81249     13.37168      9.24284        -0.303537      0.563638      1.120255
O       5.82035      5.72597      0.60104        -0.514554     -0.290511     -0.251556
O       5.69697      5.79677     13.55896        -0.124842     -0.426582      1.183221
O       5.79582      5.84277      4.93700         0.142646     -0.412870      0.184462
O       5.90911      5.81236      9.19894        -0.824523      0.190685      0.687487
O       5.80703      9.65979      0.58942         0.078254      0.220362      0.168201
O       5.78751      9.74482     13.64656        -0.102743     -0.634386      0.455810
O       5.64054      9.51810      4.79810         0.226173      0.394331      0.748348
O       5.63091      9.75994      9.31746        -0.086749     -0.703870     -0.271866
O       9.68680      1.99874      0.65501        -0.131027     -0.280337      0.231008
O       9.72086      1.80817     13.58187        -0.501068      0.280630      1.286116
O       9.69454     13.55350      0.51215        -0.153527     -0.405854      0.045706
O       9.86136     13.65444     13.61685        -0.595569     -0.373340      1.075638
O       9.54616      1.84296      4.89438         0.376788      0.362434      0.583671
O       9.54466     13.56597      4.91061         0.073522      0.045773      1.258179
O       9.83326      2.01659      9.18763        -0.423129     -0.114167      0.897922
O       9.77456     13.57536      9.18301        -0.398570     -0.559463      0.208178
O       9.69896      5.68560      0.53567        -0.205441     -0.309256     -0.002155
O       9.61811      5.64701     13.56760         0.117324      0.416630      0.305194
O       9.52727      5.79268      4.97837         0.131882     -0.193410      0.147478
O       9.62379      5.68220      9.21968         0.193816      0.458089      0.919435
O       9.62665      9.58461      0.51238         0.026088      0.374722      0.158120
O       9.52781      9.61763     13.58499         0.251555     -0.352346     -0.340739
O       9.59796      9.55044      4.88871         0.239019      0.189745     -0.812949
O       9.74085      9.54500      9.17396        -0.240936      0.350024      1.739988
O       3.86158      1.87902      2.76323        -1.044478     -0.525557     -0.376602
O       3.79585      1.91077     15.87019        -0.141413      0.224734     -0.890284
O       3.82727     13.53145      2.68108         0.087716     -0.354665      0.018750
O       3.91890     13.46943     15.65491        -1.665183      0.253445     -0.537984
O      15.41296      1.96253      2.73389         1.399078     -0.403821     -0.036571
O      15.44189      1.82308     15.79054         0.111874      0.388755     -0.272165
O       0.04012     13.42352      2.73163        -0.519642     -0.028826     -0.146871
O      15.41930     13.51762     15.66509         0.839304     -0.489625     -0.158478
O       3.74488      1.95542      7.27635         0.895697     -0.484737     -0.601945
O       3.83394     13.62787      6.98769        -0.516059     -0.200030     -0.027113
O       0.06042      1.88151      7.10239        -0.881488     -0.413044      0.110048
O      15.39429     13.36167      7.00191         1.578744      0.715935      0.203092
O       3.78849      1.93793     11.48033         0.008893     -0.041425     -0.072553
O       3.91449     13.55036     11.51300        -1.291386     -0.351262     -0.418934
O      15.40094      1.90209     11.53355         0.737393      0.311570     -0.563184
O      15.42720     13.53806     11.31441         0.178789     -0.273475     -0.297864
O       3.85335      5.70973      2.62537        -0.556931      0.590506      0.250967
O       3.78384      5.77776     15.78297        -0.289698     -0.181109     -0.082644
O      15.41108      5.77836      2.75080         0.846553     -0.281960      0.208138
O      15.44974      5.65814     15.89186         0.037047      0.229628     -0.317945
O       3.89696      5.70813      6.95451        -1.486986      0.133689      0.656697
O      15.42201      5.79897      6.92361         0.710981      0.453026      0.138083
O       3.78965      5.80357     11.26453        -0.149715     -0.271134      0.323133
O      15.38471      5.70770     11.42825         1.283053      0.542236     -0.434409
O       3.82774      9.61273      2.68232        -0.054894      0.275658     -0.267082
O       3.90653      9.57575     15.86503        -1.577805      0.062758     -0.508427
O      15.39097      9.64057      2.69180         0.951565      0.125321     -0.008959
O      15.45941      9.54165     15.77500         0.420318      0.698704     -0.013007
O       3.83683      9.67734      7.04858        -0.351877     -0.646985     -0.242526
O       0.05478      9.61506      7.01428        -0.221476      0.392119     -0.200086
O       3.82433      9.53047     11.54930        -0.512758      0.494545     -0.433962
O      15.43574      9.63450     11.34037        -0.192067      0.208870      0.116622
O       7.65813      1.90888      2.87977         0.630518     -0.090974     -0.973191
O       7.72116      1.83289     15.79762        -0.174386      0.726393     -0.201480
O       7.65823     13.64106      2.78778         1.096621     -0.871038     -0.893690
O       7.67152     13.50845     15.76602         1.268327      0.035490      0.196144
O       7.68310      1.95238      7.19536         0.184100     -0.096146     -0.667643
O       7.68603     13.35393      7.15992        -0.235211      1.371488     -0.642574
O       7.69294      1.92326     11.27524         0.490609     -0.169157      0.271853
O       7.77392     13.39571     11.40926         0.160317      0.436452     -0.125007
O       7.73274      5.75152      2.61897        -1.139475     -0.382412      0.474411
O       7.58307      5.79817     15.75152         1.034245     -0.347958     -0.074494
O       7.67672      5.80456      7.28480         0.733002     -0.139638     -0.807111
O       7.67812      5.80968     11.39347         0.355709     -0.521589      0.042144
O       7.77218      9.60607      2.83407        -1.027188      0.011779     -0.796606
O       7.69858      9.49068     15.83310         0.431040      0.823429     -0.323333
O       7.62131      9.61999      6.95245         0.379438      0.067152      0.267217
O       7.60799      9.67193     11.36526         1.178388     -0.538631      0.026860
O      11.63338      1.92480      2.68200        -0.684054     -0.098779      0.587648
O      11.54057      1.86998     15.76323         0.161819      0.187814     -0.045355
O      11.51071     13.37147      2.77070         0.865655      0.380551     -0.217556
O      11.59066     13.45701     15.79859         0.011539      0.259507      0.302764
O      11.65363      1.93435      7.12747        -0.249379      0.118250     -0.885390
O      11.58577     13.46058      7.03295        -0.038329      0.217265     -0.070876
O      11.61350      1.89658     11.56844        -0.297016      0.338731     -0.970553
O      11.58610     13.42834     11.32638         0.867155      0.096571     -0.107367
O      11.48501      5.85672      2.80071         1.317476     -0.688616      0.222727
O      11.56566      5.87324     15.65556         0.687627     -1.035624      0.182710
O      11.59778      5.79057      7.05249         0.157223      0.283179     -0.001927
O      11.55860      5.60389     11.37678         0.477220      0.603548     -0.121552
O      11.62954      9.66920      2.80641        -0.632202     -0.647515     -0.524571
O      11.59981      9.52404     15.58075         0.090635      0.843803      0.056117
O      11.55320      9.51391      7.07673         0.787433      0.764049     -0.247122
O      11.57802      9.62510     11.57477        -0.143574     -0.030306     -0.939651
O       1.99027      3.81138      2.63041        -0.563338      0.067939     -0.010307
O       1.86274      3.80248     15.66665         0.195677     -0.482182      0.143965
O       1.88153     15.36964      2.69268         0.115733      0.758573     -0.213724
O       1.88556     15.36910     15.70653         0.249000      0.049727     -0.339930
O      13.46940      3.83140      2.70115        -0.128521      0.455375      0.350190
O      13.42895      3.78423     15.80886         0.424388      0.215771     -0.041288
O      13.46998     15.38595      2.73162         0.387514     -0.305637     -0.184279
O      13.54696     15.44083     15.60366        -0.381315     -0.448141      0.643984
O       1.84863      3.82537      7.01439         0.183454      0.627776      0.187048
O       1.90464     15.42832      7.19364        -0.238298     -0.523324     -1.035736
O      13.66312      3.82283      6.97362        -0.436554      0.387587     -0.031768
O      13.53397     15.45292      7.13317         0.269682     -0.500378     -0.362956
O       1.84904      3.88175     11.45331         0.474148      0.113417     -0.501672
O       1.89999      0.00662     11.33926         0.046122     -0.590958      0.042566
O      13.60085      3.82366     11.54224        -0.515900      0.409221     -0.605187
O      13.58440     15.39886     11.42816        -0.353844     -0.240773     -0.472807
O       1.87256      7.75890      2.69877         0.141322     -0.782239     -0.050369
O       1.82852      7.67824     15.68395         0.544777     -0.023243      0.218103
O      13.57605      7.68046      2.83278        -0.578148      0.721480     -0.351071
O      13.56887      7.65975     15.65992         0.125893      0.497327      0.391101
O       1.96898      7.70596      7.00434         0.203909      0.561340     -0.514163
O      13.55029      7.76610      7.14543        -0.039219     -0.472909     -0.303538
O       1.84291      7.75833     11.34691         0.069819     -1.024605      0.081854
O      13.43281      7.65951     11.45174         0.256159      0.294422     -0.318660
O       1.91608     11.52238      2.79222        -0.026293      0.440497     -0.840937
O       1.92229     11.55411     15.67890         0.008733      0.357994     -0.447606
O      13.46691     11.51553      2.84412         0.751768      0.691456     -0.393696
O      13.51798     11.52450     15.83242         0.010707      0.297096     -0.336397
O       2.00254     11.57126      6.97727        -0.679984      0.690891     -0.341311
O      13.48141     11.53863      7.02715         0.191826     -0.001093      0.190377
O       1.86036     11.56640     11.49695         0.403241      0.412459     -0.764415
O      13.52899     11.53301     11.47621         0.183870      1.146960     -0.778844
O       5.65001      3.73317      2.88447         1.017360      1.386419     -0.962629
O       5.69601      3.86412     15.82086         0.136891     -0.355342     -0.338218
O       5.77950     15.41995      2.67153        -0.430795      0.150647      0.005863
O       5.73181      0.03682     15.69404         0.205703     -0.725040      0.105824
O       5.79096      3.83615      7.19737        -0.251403     -0.386944     -0.150561
O       5.82302      0.01520      7.14984        -0.381989     -0.083781     -0.574915
O       5.80170      3.85060     11.35282        -0.639357     -0.181241      0.119957
O       5.84884     15.37845     11.54008        -0.432348      0.653723     -0.279511
O       5.75828      7.69277      2.66761         0.028814     -0.050568      0.069953
O       5.76776      7.68064     15.82865        -0.517961     -0.350234     -0.273538
O       5.75607      7.71059      7.00540        -0.153017      0.699437      0.547265
O       5.77029      7.61894     11.58149        -0.822498      0.919050     -1.089567
O       5.83489     11.57955      2.81434        -0.302415      0.150781     -0.856902
O       5.73178     11.52721     15.81332         0.643492      0.285409     -0.022468
O       5.68115     11.56342      6.98078         0.174783      0.747450     -0.057274
O       5.74836     11.57539     11.42224        -0.347399     -0.606827      0.368710
O       9.71570      3.86867      2.78066        -0.366607     -0.834872      0.207420
O       9.60073      3.88071     15.68773         0.237333     -1.261411      0.426146
O       9.73046     15.42766      2.73382        -0.476501      0.039553     -0.238832
O       9.60179     15.42776     15.90927         0.354588      0.217510     -0.564994
O       9.64648      3.87533      7.10360         0.002172     -0.654523     -0.343169
O       9.71602      0.04223      7.17554        -0.740861     -0.387366     -0.588577
O       9.65344      3.78959     11.52760        -0.284572      0.299305     -0.540472
O       9.68428     15.41177     11.33748        -0.031205      0.549290     -0.145686
O       9.67547      7.65368      2.62809        -0.374368      0.978218      0.220295
O       9.74372      7.64842     15.79167        -1.005009      0.511718     -0.489510
O       9.64230      7.74742      7.05062        -0.338670     -1.028433      0.399568
O       9.60454      7.68654     11.44088         0.429073      0.169248     -0.273725
O       9.59106     11.53886      2.71815        -0.005527      0.323927     -0.512502
O       9.57229     11.57100     15.68101         0.252565     -0.218133      0.149455
O       9.55661     11.56473      7.05605         0.836226     -0.266386      0.079194
O       9.66126     11.52178     11.49065         0.181253     -0.240825     -0.703193
