  # total energy = -7826.65865798 
CRSYTAL
PRIMVEC
    15.6080000000000005    0.0000000000000000    0.0000000000000000
     0.0000000000000000   15.6080000000000005    0.0000000000000000
     0.0000000000000000    0.0000000000000000   16.6239999999999988
PRESSURE
5.48918 4.9048 0.242074 0.026446 0.053097 0.304367
PRIMCOORD
320 1
Pb       4.33443      4.07712      4.29391        -0.792935     -0.494351      0.118165
Pb       4.14905      3.72322      0.08215        -1.080037      0.845658     -0.462558
Pb       4.35005      0.13507      4.26976        -1.370855     -0.745859      0.264053
Pb       3.90821      0.15116      0.58662        -1.571126     -1.077247     -2.077468
Pb       0.52687      4.05485      4.26762        -1.796706     -2.325335     -0.862924
Pb       0.09222      3.93994      0.38563         0.050612     -1.512631     -1.741558
Pb      15.31986      0.02600      4.24765         1.859037      0.420315      0.579039
Pb       0.11462      0.05297      0.11503         0.890835      0.358986     -0.582589
Pb       4.01573      3.66862      8.22445        -0.242858      0.829327     -0.128837
Pb       3.95567      0.02537      8.92765        -0.526972     -0.656783     -1.831054
Pb      15.46167      3.74433      8.21727         0.339912      1.427719      0.860215
Pb      15.04075     15.42883      7.97496         1.578755      1.272577     -0.240771
Pb       3.69405      3.84772     12.25016        -0.413624      0.975345      0.716031
Pb       3.71575      0.52050     12.42724        -0.422894     -1.929306     -0.050143
Pb       0.28464      3.83237     12.58426        -0.715791      0.341812      0.845903
Pb      15.14352     15.31343     11.87476         1.553929      0.779976      1.614998
Pb       3.89929      8.30612      4.19952        -0.460167     -1.143167     -1.153077
Pb       3.95892      8.00342      0.10450        -0.207467      0.171170     -0.271109
Pb       0.27058      7.60962      4.21669        -1.886060      1.565251     -1.463988
Pb       0.18616      8.24651     16.53638        -0.173450     -0.863790      0.204879
Pb       4.21552      7.87917      8.99187        -0.672038     -0.693488     -1.721100
Pb       0.05816      7.79219      8.72329        -1.020932     -0.960942     -1.158051
Pb       3.75914      7.38011     12.97843         0.265063      0.810816     -1.246314
Pb       0.06086      7.46677     12.70170        -0.015959     -0.645529     -0.724776
Pb       3.57223     12.16767      4.92107         0.848719     -1.159533     -2.965260
Pb       3.28056     12.04249      0.50595         1.542767     -1.285618     -3.566573
Pb       0.20201     11.62592      4.30031        -0.462501      0.319535     -0.036823
Pb      15.38374     11.76211     16.30871         0.925378     -0.703075      1.140934
Pb       3.62008     11.48994      8.54883         1.014181      0.987226     -1.590796
Pb      15.31921     11.54245      8.21623         0.931775     -0.918748     -0.362320
Pb       4.39927     11.86231     12.67961        -1.302681      0.194024     -0.602582
Pb      15.11218     11.89659     12.45945         1.676488     -0.980624      0.359140
Pb       8.06141      3.99009      3.60332         0.181703      0.047256      0.737786
Pb       7.77568      3.94362     16.43745         1.152548      0.081206      0.504925
Pb       8.48538     15.58043      4.12532        -2.200382     -0.074354      0.430411
Pb       7.59259     15.27353     16.58670        -0.196518      1.421618     -0.679882
Pb       7.48040      4.04711      8.03809         0.516893     -1.033727      1.321887
Pb       7.64588      0.02178      8.41580         0.241556      0.377150     -0.546146
Pb       7.96057      3.92350     12.48537         0.346362      0.410998      0.270436
Pb       8.16291      0.25693     12.95340        -1.033654     -0.412970     -1.426220
Pb       7.49284      7.88201      4.06661         1.035717      0.052822     -0.795481
Pb       7.51618      7.90567      0.29467         1.048758      0.541627     -0.756130
Pb       7.71752      8.08831      8.33209         0.515445     -1.430893     -0.119924
Pb       7.61644      7.97136     12.69715        -0.509749     -0.786134      0.037790
Pb       7.64119     11.88685      4.05012         0.130083      0.077505      1.272690
Pb       7.97850     12.06542      0.03039        -0.775206     -2.038483     -0.857703
Pb       7.60295     11.39470      8.05507        -0.521738      1.585208      0.029526
Pb       8.04281     11.45652     12.90495        -1.036362      1.511469     -0.377208
Pb      11.37265      3.64259      3.88577         1.599338      2.486033     -0.063427
Pb      11.94453      3.74331     16.54268         0.811025      0.220028      0.816004
Pb      11.78237     15.17695      4.41947        -0.010195      0.104433     -0.566553
Pb      12.31982     15.60423      0.45750        -0.407238     -0.503276     -0.335138
Pb      11.57562      4.12418      8.68627         0.140589      0.164349     -2.243231
Pb      11.61426      0.40227      8.12792        -0.476704     -1.125452     -0.414470
Pb      11.55700      3.31403     12.58072         0.432356      1.898878     -0.425768
Pb      11.46155     15.08733     12.17731         0.575779      0.566421     -0.176631
Pb      11.06751      7.48119      4.24989         1.019633     -0.627100      0.009482
Pb      12.14023      7.90302      0.08388        -1.146891     -0.733315      0.298280
Pb      12.07642      7.46095      9.05420        -0.357753      1.702051     -2.116436
Pb      11.50806      7.60929     12.83383        -0.290349      0.240407     -1.627468
Pb      11.30663     11.38758      3.96897         1.516698      1.142874     -0.563071
Pb      11.93534     11.43550     16.23906        -0.606127     -0.155424      1.274697
Pb      11.04991     11.63416      8.29620         1.973885     -1.237854      0.384026
Pb      11.61278     11.51205     12.27855         0.552203      0.415548      0.162927
Ti       1.97277      2.05547      2.21285        -1.028793     -0.319581      0.392628
Ti       2.12113      1.99096     14.61919        -2.666424     -0.734384      0.634802
Ti       1.77772     13.69842      2.33124         2.878726      1.417210      0.672938
Ti       1.82077     13.67187     14.56006         2.432844      0.246150     -0.437806
Ti      13.51444      1.86096      2.44661         1.208292      1.452063     -2.212011
Ti      13.77469      1.80870     14.29927         2.644141      1.025762     -0.354455
Ti      13.79655     13.35173      2.36693        -1.724395     -0.983697     -1.073186
Ti      13.63626     13.76924     14.72733         0.276774      0.003076     -1.196064
Ti       2.19400      1.96153      6.39981        -3.676620     -2.851508     -2.047655
Ti       1.65267     13.78632      6.51966         2.664578      2.381297     -0.681396
Ti      13.55282      2.36229      6.23658         0.156173     -0.426707     -0.331421
Ti      13.41591     13.25826      6.19668         0.738948      0.430765     -1.762776
Ti       1.67158      1.69175     10.28475         1.139800      1.204852      0.187257
Ti       1.97427     13.36907     10.36760        -0.636009      2.067074     -1.393468
Ti      13.46345      1.86323     10.23961         0.475376      0.092287      0.518920
Ti      13.56471     13.32875      9.93965        -1.333872      1.630647      1.257308
Ti       2.14217      5.94394      2.11472        -1.203370     -1.155522     -0.893950
Ti       1.90608      5.84534     14.88421         0.029619     -1.288750     -0.792725
Ti      13.85909      5.69463      1.91045        -1.050809      0.296708      1.018034
Ti      13.71684      5.65475     14.53897         0.712859     -1.290529     -0.352753
Ti       1.75573      5.83413      6.14280         1.366469      0.177528      1.874574
Ti      13.49553      5.99838      6.01229        -0.784747     -3.131953      1.325269
Ti       1.89220      5.87032     10.37441        -0.081275     -2.351415     -0.174142
Ti      13.58831      5.43510     10.64238         3.503121      2.332483      1.423094
Ti       1.84993      9.82376      2.21407         0.977214      0.130643      0.175345
Ti       1.94390      9.80443     14.20086         0.002682      0.683382      1.318235
Ti      13.82048      9.46861      2.36775        -1.491538      0.028763     -1.470923
Ti      13.68371      9.47031     14.31125         1.468392      1.906933     -1.373416
Ti       1.79059      9.58361      6.38704         1.579355      0.470947     -0.336300
Ti      13.47191      9.54741      6.14828        -0.007662     -0.645483      1.548262
Ti       2.18809      9.56557     10.44440        -3.513025      0.794286      1.398136
Ti      13.79431      9.67101     10.37070        -0.468109     -1.940569      0.006989
Ti       5.71680      1.96994      2.11105         2.716509      0.152643      0.572285
Ti       5.87090      2.13731     14.28378         0.826956      0.354999      1.855948
Ti       5.81809     13.68405      2.09000        -0.999175     -0.162082      0.710380
Ti       5.59258     14.04256     14.33692         1.404086     -2.374770     -1.340565
Ti       5.99312      1.80263      6.26707         1.118239      1.103915     -0.907711
Ti       5.79799     13.81004      6.26500         0.728917     -0.991829      0.070867
Ti       5.87249      2.12361     10.43176         1.834980     -1.534863     -0.768479
Ti       6.03335     13.65586     10.19177        -0.544824      2.972439      0.219381
Ti       5.90562      5.85465      2.02741        -0.214141      1.512231     -0.234731
Ti       5.95507      5.84463     14.50280         0.398211      0.537068     -0.554120
Ti       5.62463      6.12521      6.08609         1.128310     -2.679844      0.068573
Ti       5.69830      5.87651     10.51859         0.483108      0.624015      0.572255
Ti       5.66126     10.08198      2.05681         0.429014     -3.564844     -1.189734
Ti       5.71192      9.93422     14.67674         0.580015     -0.179660      0.075888
Ti       5.66744      9.76694      6.07759         2.345899      1.639261     -0.869523
Ti       5.94878      9.99257     10.41144         0.140972     -1.062553      2.107830
Ti       9.73258      1.72159      1.79870        -0.651061      3.183128      0.855965
Ti       9.98044      1.86185     14.80401        -0.333324      0.274023     -2.057363
Ti       9.77605     13.67102      1.76067         2.266762     -1.758414      1.483567
Ti       9.94817     13.59784     14.49447        -1.659017     -0.694603     -0.509681
Ti       9.81459      1.99898      6.13375        -1.853447     -0.151581      0.128172
Ti       9.63653     13.32194      6.12285        -1.113127      4.237522      0.032863
Ti       9.62546      2.02695     10.12129        -1.679250     -0.491236      0.739053
Ti       9.67820     13.58353     10.03176         0.177434      1.059043      0.743350
Ti       9.92748      6.00544      1.79147        -0.652005     -2.597452     -3.561633
Ti       9.88851      5.64207     14.45787        -1.535998      3.677728      0.534478
Ti       9.61103      5.68904      6.58550         1.147663      1.638527     -2.372517
Ti       9.45327      5.92557     10.40669        -0.708762     -0.235822      1.230410
Ti       9.76399      9.63672      2.05020        -0.905538      1.296169     -3.172228
Ti       9.56403      9.56100     14.69578         1.226059     -1.765496      2.987334
Ti       9.66454      9.60710      6.12468        -0.321010     -0.607253     -1.297280
Ti       9.80989      9.78596     10.61945         0.573372     -1.062393     -0.934784
O       2.14188      2.38025      0.20771        -0.082496     -1.516674      0.989501
O       1.64101      1.61525     12.85876         2.584353      0.864589     -0.559471
O       1.49863     13.76908      0.51098         1.675367     -1.300261     -1.141633
O       1.56612     13.47279     12.83363         1.010534      0.529051     -1.458330
O      13.89692      1.81375      0.59282        -0.844531     -0.085309     -0.583880
O      13.37028      1.65378     12.45343         0.473611     -0.191514     -0.544135
O      13.63556     13.52756      0.45631         0.518665      0.763336     -2.306642
O      13.66425     13.55252     12.82370        -0.749456      0.515778      1.035900
O       1.89087      1.73598      4.51644         0.264173      0.786839     -0.245340
O       1.94384     13.92909      4.54824        -0.517726     -1.306083     -1.312996
O      13.50908      2.09952      4.34319         0.264723     -0.361695      0.440030
O      13.83138     13.14152      4.26703        -0.721160      1.742405      1.663069
O       1.77618      1.82168      8.45850         0.711795      0.657507      0.720589
O       1.76711     13.79402      8.55048         0.134170     -0.508068      0.537029
O      13.42862      2.08132      8.26408        -0.644747     -0.628800      2.945527
O      13.48598     13.26620      8.15117        -0.247047     -0.106831      0.235372
O       1.87490      5.72744      0.21798         0.177912     -0.032778     -0.862550
O       1.87266      5.77261     12.87083         1.542632      0.862867     -0.512973
O      13.81426      5.69603      0.00677        -0.587651      0.690291      0.586102
O      13.76306      5.63514     12.65301         0.289292      0.324407     -0.002126
O       1.81998      6.00567      4.09278         0.297559     -0.517228      2.046173
O      13.56942      5.73319      4.28890         0.193283      1.158929     -0.246383
O       1.94227      5.77506      8.51522         0.366156     -0.397061     -0.132199
O      13.83304      5.78121      8.88272        -0.025500     -0.570990     -0.629711
O       1.76129      9.96484      0.43633        -0.048808     -0.803106     -1.278697
O       2.02988      9.73673     12.40514        -0.480963      0.020827     -0.336876
O      13.63072      9.52713      0.44276         1.247282      1.080512     -0.829353
O      13.72654     10.00560     12.48424        -0.313713     -1.707801      1.195142
O       1.98590      9.63923      4.26468        -0.234537     -0.127486      1.237843
O      13.36366      9.28190      4.43194         1.097875      0.305683     -1.272729
O       2.18600      9.31953      8.22161         0.000911      1.364300      0.709953
O      13.76168      9.47252      8.48265        -0.367821      1.410903     -0.431054
O       5.80047      1.89051      0.30314        -0.351870      0.684101      0.092344
O       6.07003      2.23451     12.52901        -1.082879     -0.677401     -0.478709
O       5.95666     13.74266      0.17764        -0.005315     -0.412707     -0.455094
O       5.52965     14.04714     12.32628         0.844686     -1.435833      1.823486
O       6.17414      1.74836      4.29213        -1.477793      0.284396      0.276118
O       5.85967     13.85164      4.25299         0.202123      0.258068     -0.672241
O       6.03221      2.07686      8.46454        -1.429122     -0.181879      1.799029
O       6.03178     13.85997      8.23284        -0.795667     -1.137744      1.203869
O       6.01410      5.85921      0.23545        -0.330157      0.381438     -0.263944
O       5.74952      5.82601     12.67074         0.355241     -0.083567      0.171324
O       5.91548      6.22385      4.22119        -0.272500     -1.407752      0.459444
O       5.32558      5.77945      8.70033         0.431172      0.026885     -0.319705
O       5.69551      9.92795      0.15807        -0.037808     -0.141211      0.261928
O       6.14108      9.91114     12.71873        -1.173072     -0.069130     -0.342251
O       5.98878      9.71215      4.15118        -0.749530     -0.026879      1.571363
O       5.82257      9.78773      8.56557        -0.269163     -0.073940     -0.758341
O       9.84594      2.18092      0.02238         0.149477     -1.081602      0.026789
O       9.90756      1.84877     12.89297        -0.142874      0.120459     -1.345813
O       9.72449     13.92652     16.59972        -0.116168     -0.516540      0.314208
O       9.73313     13.24795     12.48406         0.939390      1.837199      1.857501
O       9.82521      2.11905      4.18716        -1.344314     -1.247779      0.760222
O       9.69670     13.48975      4.28906         0.304658     -0.512636     -1.519246
O       9.60093      1.80458      8.33528         0.699141      0.425758      0.121208
O       9.83555     13.64118      8.15095         0.109746      0.157489      1.655140
O       9.68541      5.81580     16.45475         1.029943      0.078628      1.864655
O       9.87971      5.66534     12.52943        -0.836523      0.770194     -1.886549
O       9.54383      5.62589      4.65971         0.623181      1.388970     -1.180723
O       9.48162      5.96254      8.44449         0.238726     -0.038214      2.580837
O       9.77620      9.27556      0.03868         1.109848      1.194562      0.255783
O       9.83406      9.81255     12.82643        -0.322956      0.028559     -2.164167
O       9.50575      9.88315      4.23223         0.165391     -0.474872      0.099826
O       9.54377      9.49133      8.88910        -0.116926      0.503656     -2.418152
O       3.91868      2.43399      2.34025         1.403078     -2.190791     -0.077939
O       4.03301      2.01640     14.46318         0.238414      0.176921      0.168481
O       3.96260     13.53168      1.98358         0.727671      1.031764      1.124337
O       3.93430     13.36230     14.48132        -1.030813      1.963719      0.539384
O       0.13566      1.90819      2.40336        -0.561900     -0.014812      0.240876
O       0.04728      1.82300     14.40885        -1.777922      0.308423      1.844843
O       0.09328     13.63341      2.43917        -2.634381      1.514858      1.514415
O       0.10094     13.76991     14.88793        -3.712572     -0.393529      0.648957
O       3.88652      1.82061      6.64162         2.645475     -0.085262     -0.035566
O       3.93633     13.76798      6.30375        -0.203866      0.267682      1.271203
O      15.36803      2.11059      6.74486        -0.271168     -0.572767     -2.029628
O      15.52562     13.56500      6.45314        -3.013164     -0.188055      0.003123
O       3.73320      1.86789     10.53659         1.962067      0.816248     -0.083087
O       3.77329     13.57280     10.18835         0.118357     -0.149228      0.512176
O      15.52408      1.54631     10.36460        -3.197833      0.815033     -0.116732
O      15.39514     13.58251     10.32620         0.420046     -0.423682      0.133817
O       3.91411      6.06972      2.06234         2.032846     -0.662816      0.316941
O       4.03880      6.05086     14.72693        -0.956217     -0.723151      1.254790
O       0.01680      5.23201      2.19330        -0.580695      2.549293      0.672873
O       0.13731      5.66224     14.44310        -1.389570      0.283233      1.551827
O       3.76524      5.94109      5.84863        -0.387577     -0.251817      1.154128
O      15.49222      5.52860      6.54133         1.763112      0.494736     -1.378466
O       3.78733      5.83975     11.06533         0.200464      0.011675     -1.631032
O       0.14622      5.77782     10.83498        -0.761614      0.440729     -0.478660
O       3.77390      9.76077      2.25664         2.349777     -0.059614     -0.254610
O       3.89951      9.71894     14.75760        -0.770324     -0.141353     -0.581202
O       0.10367      9.65512      2.58572        -2.372149     -0.604853      0.332391
O       0.03976      9.74219     14.63483        -0.455117     -0.261468      0.001183
O       3.93058      9.85122      6.12261        -1.546965      0.186180      0.586828
O       0.08424      9.74541      6.38328        -2.905319      1.063553     -0.005796
O       3.90993      9.82573     10.66510         1.555843      0.070651     -0.915055
O       0.01853      9.45950     10.26701         1.657420      1.694382      0.834545
O       7.83340      1.92120      2.10080         1.077537     -0.126490     -0.302989
O       8.01734      2.29849     14.65731        -0.628207     -1.841387     -0.084090
O       7.89474     13.60957      2.08050         0.714460      0.681604     -0.163533
O       7.81509     13.79145     14.57768         0.262681      0.162895      0.465769
O       7.76262      1.59856      6.61644         0.882988      1.183367     -1.646450
O       7.88141     13.80534      6.21923        -0.729410      0.119098      0.111794
O       7.89926      1.67344     10.78663        -1.040514      0.406021     -0.915528
O       7.85238     13.92106     10.04127         0.183510     -1.185752      1.582510
O       8.09455      5.84092      2.04915        -3.141227      0.688062      1.004552
O       7.82776      5.61886     14.31354        -0.431239      0.465835      0.873308
O       7.45753      5.66611      6.67029        -0.160255      2.894251     -1.422633
O       7.59798      5.92331     10.51287         1.632213      0.396028      0.188846
O       7.88640      9.66656      1.76202        -0.245915      1.135233      1.570156
O       7.82102      9.94433     14.81761        -0.915338     -0.306494     -0.084560
O       7.58218      9.67725      6.38837         0.955412     -0.193768      0.866101
O       7.67932      9.98862     10.62479         1.394228     -0.806546      0.212529
O      11.67810      2.04181      2.00106        -0.042141     -0.541196      0.626570
O      11.97833      2.19924     14.60125        -2.711393     -0.712935      1.666660
O      11.82750     13.45943      2.42586        -1.031811      0.081689     -0.300947
O      11.79697     13.57208     14.95223        -0.205067     -0.016911     -0.671552
O      11.50682      2.38059      6.40749         1.328577     -2.038677      0.275329
O      11.58341     13.33186      6.12852         1.568724     -0.378485      0.035875
O      11.47877      2.27813     10.31043         2.110702     -1.206207      0.379130
O      11.54732     13.16676     10.46362         1.910450      0.983294     -0.441784
O      11.62950      6.34892      2.26616         0.962936     -1.632816     -0.082780
O      11.73886      5.90774     14.17933         1.763583     -0.614886      2.677951
O      11.57000      5.70364      6.76166         0.146507      1.644015     -0.777705
O      11.86197      5.71354     10.44318        -3.416930     -0.755119      1.061828
O      11.85787      9.76837      2.21270        -0.960415     -0.043654      0.780125
O      11.90115      9.46651     14.71003        -0.650237      0.095256      0.119626
O      11.51997      9.94836      6.15134         0.019882     -0.771863      0.943622
O      11.81019      9.92861     10.40562        -2.442200     -0.076912      0.850601
O       1.94787      3.92816      2.48069         1.138371     -0.130196      0.118590
O       2.15946      3.87187     14.64262        -0.069957     -0.209544     -0.020308
O       2.26856      0.06542      2.21653        -0.243694      0.604931      0.046203
O       2.10555      0.00063     15.30775         0.002109     -0.129649     -1.380849
O      13.37245      3.97926      2.13661        -0.385812     -1.331844      0.107355
O      13.83750      3.81059     14.97429        -0.513010      0.006365     -1.191286
O      13.56793     15.54894      2.49294         0.333956      0.149953      0.238466
O      13.70719      0.02251     14.82483        -0.461881     -1.651043      0.481872
O       2.29921      3.80323      6.12306        -1.136095      2.661510      0.733994
O       1.69402      0.02922      6.44952        -0.465093     -0.076489      1.032104
O      13.37901      4.08286      6.43415         1.143042     -0.605794      0.330663
O      13.34775     15.49304      6.31387         0.356189     -0.497071     -0.134182
O       1.82301      3.80600     10.96722         0.813116     -0.982339     -1.933568
O       1.88623     15.56307     10.92638         0.619415     -1.132306     -1.286096
O      13.79075      3.62375     10.71101        -0.084986     -1.267359     -0.854128
O      13.47393     15.33547     10.22410        -1.229880      1.054146     -0.209711
O       1.82522      7.71011      2.02168        -0.177515      1.389561      0.505213
O       1.82650      7.81732     14.74810         0.725842      0.255539      0.133341
O      13.80741      7.57401      2.03540         0.824559      2.132290      0.905591
O      14.03782      7.63503     14.61715        -1.196002      0.766647     -0.054741
O       1.38929      7.78223      6.14215         2.212001     -2.810274      0.795719
O      13.68469      7.63240      6.68938        -0.109249      2.522224     -0.836729
O       1.98395      7.73272     10.36373         0.703196      0.522362      0.716489
O      13.71098      7.78370     10.67009        -0.599398     -0.083628      0.264586
O       2.06610     11.77849      2.23572        -1.637180     -0.190533      2.420686
O       1.87806     11.52301     14.79235        -0.001459      1.641956     -0.310298
O      14.30984     11.62699      2.16479        -1.454099     -1.208047      0.546595
O      13.66485     11.52426     14.67161         0.252262      0.943717      0.477643
O       1.93383     11.85695      6.40581        -0.158755     -1.976232      1.091128
O      13.82642     11.47671      6.11038        -0.458953     -0.821233      1.181376
O       1.97144     11.53086     10.00180        -1.139673     -0.256781      1.250288
O      13.76856     11.62671     10.51679         0.036621      0.117617     -0.417235
O       5.82138      4.01651      2.23603         0.801436     -0.213253      0.271338
O       5.99925      3.95527     15.01368        -1.536271     -0.893243     -1.138149
O       5.71233     15.51963      2.03697         0.418636      2.094480      1.400531
O       5.93588      0.23165     14.58455         0.137113     -0.217670      0.225695
O       5.86490      3.75068      6.28004        -1.589425      0.448039      0.121719
O       5.63157      0.01472      6.47498         0.365578      0.919410     -0.339919
O       5.87858      3.97070     10.48970        -0.429900     -1.701673      0.310448
O       5.82156      0.01553     10.27673        -0.425100      1.132876      0.129273
O       5.92084      7.95136      2.24167         0.102529     -0.639907     -0.863976
O       5.93576      7.92445     14.57280         0.551376     -0.562316      0.412356
O       5.48835      7.80015      6.47427         0.998089      2.711599      0.388622
O       5.90897      7.84566     10.65119        -0.747650      0.488625     -0.504286
O       6.07029     11.72582      2.48603        -0.837762      1.493729     -1.162393
O       5.80001     11.82721     14.40824         1.091524     -0.124034      0.607979
O       5.96811     11.89799      5.99776        -0.146200     -2.600772      1.201975
O       5.83682     11.91012     10.22307        -0.328742     -2.362184      0.758241
O       9.88950      3.98742      2.06705        -0.010408      0.037586      0.562461
O       9.90810      3.95481     14.42614         0.637491     -4.362337      1.218151
O      10.16835      0.02190      2.18013        -1.231060     -1.720958     -0.099174
O      10.01934     15.54003     14.37814        -0.166171      0.054304      1.275339
O       9.69746      3.94908      6.41527        -1.845086     -2.767197      0.848370
O       9.92067     15.54618      5.90334         0.700127      1.583900      1.205815
O       9.24846      3.91473     10.50432         1.921347     -0.499384     -1.035203
O      10.07810     15.54516     10.44091        -0.491972     -0.442657     -0.393760
O       9.78050      7.87128      2.20852        -0.636962     -0.718412      1.095376
O       9.51777      7.67297     14.56545         0.579923      1.585189     -1.305641
O       9.47459      7.80946      6.27761         0.212672      0.896215      0.464169
O       9.88162      7.74042     10.71951        -0.474948      0.199835      0.186287
O       9.85223     11.68808      1.65973        -0.233872      0.893226      0.921555
O       9.74122     11.65765     14.72751         0.836532      1.112331      0.748318
O       9.43155     11.60993      6.50829         0.056138     -2.827638      0.106584
O       9.57472     11.68877     10.33028         0.042524     -0.356182     -0.084517
