  # total energy = -7845.86675893 
CRSYTAL
PRIMVEC
    15.6080000000000005    0.0000000000000000    0.0000000000000000
     0.0000000000000000   15.6080000000000005    0.0000000000000000
     0.0000000000000000    0.0000000000000000   16.6239999999999988
PRESSURE
1.5822 0.258206 -3.29564 -0.069648 0.000629 0.047499
PRIMCOORD
320 1
Pb       4.00585      4.12591      4.23986        -1.005385     -1.366063     -0.478001
Pb       3.92575      4.07683      0.15076        -0.014159     -0.279376      0.203839
Pb       4.02526      0.13028      4.41884         0.712928      0.175026     -0.156472
Pb       3.75407     15.43509      0.05573        -0.362465      1.375734     -0.383329
Pb       0.16231      4.02765      4.28250         0.692188     -1.195667     -0.491743
Pb       0.03780      3.80946      0.12177         0.605338     -0.170710     -0.052121
Pb      15.44843     15.52925      4.48355         0.425542     -0.010976     -0.126360
Pb       0.31450     15.45065     16.61520        -0.696413      0.557893      0.181480
Pb       3.88383      3.65801      8.28701         0.683011      1.634960      0.057195
Pb       3.80661      0.01399      8.39537         1.057080     -0.662118     -0.394386
Pb      15.39967      4.05769      8.14686        -0.278114     -0.380283      0.597854
Pb      15.28512      0.09067      8.04317         0.316179     -0.154225     -0.313333
Pb       4.05644      3.90204     12.38719        -0.598501     -0.161089      0.163442
Pb       3.80992      0.05087     12.42640        -0.221887     -0.200061     -0.215279
Pb       0.04413      3.66505     12.66730        -0.036940     -0.279731     -0.246125
Pb      15.59673      0.00730     12.27822        -0.316532     -0.085268     -0.479135
Pb       3.70857      7.94090      4.25396        -0.247827     -0.005874      0.218480
Pb       3.60112      8.07319      0.12979         1.901980     -1.581049      0.178792
Pb      15.55205      7.88749      4.11165         0.635195      0.348677      0.487861
Pb       0.13931      7.95352      0.13491        -0.958831     -0.504460     -0.039842
Pb       3.84070      7.92138      8.66646        -0.818094     -1.375076     -0.406466
Pb       0.02590      7.55856      8.48173         0.233336     -0.112726      1.240875
Pb       3.82748      7.69384     12.74715        -0.257930      0.036668      0.275236
Pb       0.22195      7.43249     12.78570        -0.064953      0.848854      0.213635
Pb       3.81661     11.86328      4.41862        -0.810545     -0.190386     -0.246546
Pb       3.65375     11.82062      0.02104        -0.003521     -0.626626      1.153445
Pb      15.51764     11.61689      4.67359         0.986595      0.900513     -1.270431
Pb       0.04057     11.85744     16.59020        -0.403846     -0.201641     -0.027338
Pb       3.82491     11.68074      8.64593         0.627731      0.534526      0.350572
Pb      15.46844     11.23059      8.20356         0.458575      1.465273      1.503026
Pb       3.65320     11.84090     12.55203         0.919786      0.294220     -0.132777
Pb      15.41708     11.75932     12.39640        -0.194461      0.596477      0.512655
Pb       7.72277      4.15520      4.15992         0.201833     -0.587064      0.391841
Pb       7.83718      3.66017     16.59829        -0.159828      1.015481      0.042022
Pb       7.81495      0.09623      4.03394        -1.221509     -0.434472      0.563774
Pb       7.69172      0.16232      0.04077         0.249422      0.102053      0.109619
Pb       7.81913      3.94884      8.58307         0.563199      1.046354     -0.533473
Pb       7.76364      0.17721      8.30508        -0.209549     -1.669803      0.444979
Pb       7.97752      3.81011     12.61548         0.019038      0.205037      0.365986
Pb       7.68900     15.40960     12.73735         0.656090     -0.075411     -0.552039
Pb       7.72166      7.71376      3.98032         0.573053      0.137435     -0.638153
Pb       7.79669      7.93997     16.45025        -0.742522     -0.697375      0.988198
Pb       7.90123      7.77257      8.33195        -0.171034     -0.458009     -0.670965
Pb       7.59219      7.69414     12.77779         0.060751      0.540391     -1.154445
Pb       7.59396     11.91958      4.23762         0.012999      0.748788      0.346003
Pb       7.62841     11.40394     16.60922        -0.278844     -0.083667      0.249671
Pb       7.56403     11.84695      8.50349        -0.485750     -0.112489     -0.142014
Pb       8.11588     11.94724     12.80394        -1.752594     -0.044429     -1.525481
Pb      12.00199      3.94316      4.03928        -0.934142     -0.674219     -0.510822
Pb      12.00704      3.79675      0.03698        -0.543049     -0.364905      0.735517
Pb      11.89775     15.40514      4.13391        -0.742471      0.623775      0.653127
Pb      12.18795     15.52779      0.32090        -0.682131      0.500164     -0.536912
Pb      11.61477      4.06046      8.41289        -0.222839      0.157320      0.667727
Pb      11.45997      0.22563      8.11818        -0.058188     -0.392602      0.449820
Pb      11.79697      3.78730     12.73203        -0.529073      0.279638     -1.113958
Pb      11.70011     15.49988     12.12209        -0.497289     -0.713330      0.836049
Pb      11.57221      7.61796      4.18304        -0.507522      0.943042     -0.309369
Pb      12.00601      7.72435     16.57877        -0.455679      0.340677      0.532507
Pb      11.68460      7.72048      8.46772         0.156223     -0.535127      0.896647
Pb      11.64714      7.70132     12.49440         0.213243      0.311921     -0.485264
Pb      11.60553     11.63940      4.32243        -0.346121      0.418446     -0.094866
Pb      11.77030     11.62372      0.11709         0.376953     -0.065550     -0.877934
Pb      11.62873     11.18615      8.17930        -0.713450      0.487798      0.481884
Pb      11.38858     11.49644     12.16291         1.503386      0.934740      1.397901
Ti       1.99947      1.94347      2.41886         0.640678      0.250472     -0.657561
Ti       1.97157      1.92431     14.66552        -0.171750      0.819661      0.936359
Ti       1.93773     13.66107      2.37707        -1.474823     -1.157089      2.191687
Ti       1.77845     13.67160     14.41192         0.273350      0.181098     -0.207048
Ti      13.89217      1.96261      2.03980        -2.010196      0.613970      1.366434
Ti      13.57012      1.88774     14.44430         3.607520     -1.523317     -0.990812
Ti      13.84986     13.57050      2.04415        -0.394896     -0.536901      0.092072
Ti      13.53830     13.62325     14.37972        -0.611818     -0.404929     -0.640233
Ti       2.02940      2.02993      6.26588        -0.215573     -0.489339     -2.083451
Ti       1.95167     13.76710      6.51041        -0.754821     -0.495037     -0.841133
Ti      13.46150      1.99846      6.06283         2.347928     -0.300970     -0.507939
Ti      13.37788     13.49095      6.40755         0.494246      1.158823     -0.202767
Ti       1.94677      1.99477     10.06949        -0.660411      0.492856      1.668189
Ti       1.84596     13.64344     10.32903        -0.651821      0.515421      0.308422
Ti      13.61995      1.88711     10.24814        -0.239919      2.342358      1.116142
Ti      13.45923     13.58338     10.05841         1.056632      0.022240      1.493489
Ti       1.89848      5.95906      2.40727         3.086026      0.083751     -2.180373
Ti       1.91957      5.81708     14.99494         0.225326     -0.655502     -1.339393
Ti      13.73549      5.97383      2.35152         2.325781     -1.867733     -2.095959
Ti      13.62717      5.82600     14.68165         2.141719      0.457755      0.960433
Ti       1.94342      5.85610      6.48032         1.813172      1.447234      0.424804
Ti      13.74386      5.72282      6.16710        -1.394423      1.183821      1.379194
Ti       2.05533      5.83492     10.63766        -0.384672      0.399534     -3.396617
Ti      13.70614      5.79843     10.78128        -0.134295     -0.510361     -2.781281
Ti       1.80452      9.93508      2.17730         3.267252      0.489459      0.914485
Ti       1.90291      9.82654     14.82088        -0.552500     -0.341967     -3.024010
Ti      13.56160      9.73694      2.19708         0.017783      0.214101     -0.115042
Ti      13.63733      9.75559     14.62704        -0.291895      0.537386     -0.975417
Ti       1.96825      9.83075      6.51363         0.540622     -0.818560     -0.772850
Ti      13.65964      9.55563      6.36020        -0.796947     -1.347021     -1.530107
Ti       1.94473      9.83884     10.85836        -2.537823     -2.700414      0.139484
Ti      13.70397      9.75293     10.65477        -1.425759     -1.974388      0.529032
Ti       5.81645      1.96418      2.07089        -0.898788     -0.015550     -0.181216
Ti       5.80360      1.69319     14.62882        -0.511200      2.473920     -0.154877
Ti       5.60714     13.75085      2.19341         1.639490      0.042415      1.580881
Ti       5.73814     13.41458     14.81378        -0.876177      1.221468     -1.502458
Ti       5.97842      2.05734      6.40081        -2.878410     -1.375752     -2.202378
Ti       5.64591     13.58508      6.46154         1.684567      2.243752     -0.406459
Ti       5.82429      1.89816     10.39432         0.667369     -0.302018     -0.334530
Ti       5.86306     13.73015     10.53567        -0.463353     -1.939392      0.133960
Ti       5.67925      5.98956      2.00876        -0.239748     -0.727596     -0.286578
Ti       5.78523      5.69687     14.47943        -0.207474     -0.637402      1.180831
Ti       5.78094      5.91472      6.09976         1.284859     -0.063875      0.574196
Ti       5.97973      5.77099     10.57292        -0.456504      0.498232     -1.622040
Ti       5.76399      9.83889      2.32332        -1.123478     -0.773360     -2.448625
Ti       5.68917      9.65231     14.50633         0.270611     -1.083363     -0.491834
Ti       5.79031      9.68214      6.14614         0.495642      0.190008      0.428063
Ti       5.61511      9.55164     10.51573         2.589233      1.304375      0.423183
Ti       9.80348      2.01865      2.32909         1.415621      0.430074      0.050813
Ti       9.84914      1.96208     14.71311        -0.804130      0.207346      0.458633
Ti       9.74200     13.68322      2.08310        -1.186245      0.018734     -0.186709
Ti       9.67459     13.71181     14.83048         2.726450      0.952499     -1.492132
Ti       9.72611      2.04471      6.28351        -0.424837      1.301112     -0.486090
Ti       9.61494     13.59743      6.25435        -0.547013     -0.086384      0.641032
Ti       9.72891      1.80015     10.58944         0.408866      0.500401      0.917768
Ti       9.75121     13.43716     10.16091        -3.448078      1.461963      0.333393
Ti       9.58937      5.69512      1.99604        -1.165136      2.915196     -1.522248
Ti       9.79430      6.00370     14.52208        -1.079566     -2.849518     -0.666598
Ti       9.90897      5.85036      6.12795        -2.120318     -1.716384      0.906188
Ti       9.80437      5.78842     10.57589         0.139143     -0.517454     -0.121689
Ti       9.71789      9.85761      2.06403        -0.328668     -2.242096      1.365175
Ti       9.73778      9.67051     14.45499         0.663534      0.150229      0.055731
Ti       9.75139      9.51601      6.01005        -1.516622      1.572523      0.937253
Ti       9.54301      9.58674     10.52901        -0.937968     -0.821131     -0.546178
O       1.78461      1.50942      0.10946         0.677120      0.903927      0.984958
O       2.21265      2.20598     12.83752        -0.751438     -0.715099      0.149223
O       1.87119     13.47578     16.46424         0.163892      0.048796      0.538729
O       1.78378     13.62469     12.40425         1.152811      0.606381      1.181619
O      13.73255      1.99910      0.21188        -0.953836      0.031542     -2.299337
O      13.74724      2.04248     12.49978        -0.590929     -0.820347      1.747145
O      13.60384     13.62047      0.21617         0.507702     -0.379544      0.593444
O      13.44136     13.40311     12.59637         0.580595      0.908436     -1.345521
O       2.11097      2.00829      4.35119        -0.670576     -0.440223     -1.620347
O       1.92427     13.27656      4.19370         0.012890      1.375799      0.255925
O      13.55277      1.86249      4.14084         0.503356     -0.093872      0.480627
O      13.58988     13.69318      4.60462         0.041261      0.198499     -1.912157
O       2.11231      1.96712      8.18292        -1.003137      0.104162      3.646945
O       1.90432     13.77895      8.35156         0.234550     -0.212539      1.118035
O      13.62859      2.16636      8.26949        -0.121862     -0.625755      1.268072
O      13.54867     13.96035      8.30104         0.489949     -0.309610      0.594434
O       1.80413      6.13134      0.06698        -0.096941     -0.680504      1.655313
O       2.09893      5.81353     12.33832        -0.815520     -0.081295      3.302961
O      13.79603      6.26043      0.10501        -0.451085     -1.991348     -1.048063
O      13.77641      5.75172     12.53612        -0.269669      0.316523      1.046472
O       2.18827      6.08627      4.18517        -0.438100     -1.047667      0.678331
O      14.03974      5.66294      4.25745        -0.850952      1.618174     -0.192293
O       2.06553      5.96554      8.40057        -0.276307     -0.489826     -1.692316
O      13.54215      5.65414      8.24916         1.243870     -0.381287     -1.254722
O       1.98427      9.72779      0.02322        -0.928899      1.196530     -0.683235
O       1.81085      9.42368     12.66381         0.474900      1.348541     -1.261002
O      13.30652      9.73977      0.17689         0.947799     -0.738384     -1.664513
O      13.58289      9.71140     12.52352         0.428203      0.583932      0.550208
O       1.81595      9.97063      4.02980        -0.057078     -0.706516      0.317717
O      13.75240      9.69632      4.17642         0.357985     -0.120199     -0.496482
O       1.95700      9.73304      8.36033         0.016192      0.408918     -0.565846
O      13.78595      9.56427      8.15582        -0.271992      0.623193      1.120801
O       5.78068      1.67025      0.14861        -0.008006      0.343565      1.258734
O       6.03310      1.94124     12.69496        -0.813759     -0.634698      0.176278
O       5.54823     13.48687      0.18412         0.751390      0.541518     -0.757952
O       5.86196     13.61334     12.67667         0.054471      0.169403     -0.233385
O       5.90384      1.76661      4.49977         0.233225      0.623845     -0.055363
O       6.00162     13.63900      4.21410        -1.371332     -0.371558     -0.075838
O       5.74486      1.54124      8.45153         0.533927      1.827110      1.109569
O       5.78669     13.73505      8.32570         0.816937     -0.983008      1.391578
O       5.69091      5.97726      0.21965         1.067888     -0.375345     -1.054321
O       5.89260      5.48173     12.63562        -0.834982      0.750286     -0.424821
O       5.56264      5.69459      4.18247         1.917933      1.161980      1.699890
O       6.08058      5.72221      8.62500         0.156330      0.935801      1.070157
O       6.08837      9.49921      0.19987        -0.052288      1.105366     -0.130623
O       5.71733      9.66954     12.69488        -0.245089      0.592221      0.122948
O       5.36392      9.78836      4.30646         2.369375     -0.075666     -0.622460
O       5.61797      9.42618      8.59089         0.235738      1.064753      0.693138
O       9.93605      2.14764     16.58276         0.131428      0.240000     -0.037251
O       9.57731      1.86633     12.58720         0.600918     -0.341550     -0.326824
O       9.88671     13.42995      0.21561        -0.476312      0.909903      0.762572
O       9.70769     13.67486     12.63134        -0.391680     -0.173145      1.460722
O       9.66080      2.11068      4.37570        -0.193782     -0.922684     -0.988786
O       9.95704     13.49482      4.49111         0.066745      0.853358     -2.161489
O      10.03350      2.20992      8.30150        -0.642447     -1.281803     -0.251203
O       9.49768     13.52493      8.35120         0.626460     -0.976527      0.352681
O       9.51671      5.50242      0.09949         0.893224      0.922515      1.118097
O       9.92977      6.03114     12.58526         0.689519      0.359674      0.793100
O       9.87794      5.72933      4.38329        -0.679210      0.978215     -1.827675
O       9.64261      5.83577      8.68311        -0.012149     -0.556547     -0.878895
O       9.51443      9.92956      0.29488         0.631654     -0.435764     -0.485478
O       9.82099      9.45752     12.59375        -0.138050      0.302317      0.658686
O       9.67293      9.34238      4.25009         0.501355      0.621590      0.208357
O       9.86879      9.61533      8.71497        -0.444891      0.484469     -0.789784
O       3.87014      1.57886      2.44962        -0.185938      0.728257     -1.216585
O       3.88325      1.58931     14.83657         1.006825      0.562874     -0.451804
O       3.77773     13.89614      2.22240         2.185608      0.000873     -0.299376
O       3.78923     13.73858     14.49170         1.637467     -0.532767      0.489888
O      15.59649      2.10806      2.18946         3.015431      0.571916      0.826005
O      15.50285      2.18086     14.58482         0.896218     -0.473824      0.016652
O       0.00924     13.10413      2.46609        -1.733752      1.102154     -1.544042
O      15.59695     13.52729     14.58207        -0.969109      0.198537     -0.005267
O       3.91041      2.20460      6.44886         1.207902     -0.579597      0.018888
O       3.81170     13.34828      6.33327         1.081685      0.457359     -0.008314
O       0.16164      1.99675      6.29537        -0.674396     -1.535277      0.413357
O       0.07427     13.97807      6.42345        -0.769493     -0.076425     -0.317728
O       3.93160      1.84662     10.38682        -0.450787      0.183234      0.310509
O       3.97264     13.75225     10.26816        -0.458692      0.193241      0.647770
O       0.02949      1.91922     10.71665         1.364118     -0.198773     -1.481924
O       0.00891     13.45154     10.57972        -0.512430      0.937004     -0.824159
O       3.84882      5.68275      2.03329        -0.979003      0.328175      0.316845
O       3.90848      5.59084     14.67655        -0.220004      0.386939     -0.515036
O       0.21903      5.69310      2.51200        -2.805427      0.071363     -0.867177
O       0.06302      5.65108     14.57312        -0.283562      0.234477     -0.488173
O       3.98839      5.97811      6.24482        -0.805308     -0.794393      0.778941
O       0.09160      5.86747      6.47616        -1.066314     -0.097755     -0.215255
O       3.90821      5.89408     10.61045         1.458022      0.086014     -0.511221
O       0.08227      5.97046     10.37047        -1.427836     -0.652561     -0.047471
O       3.83128      9.64551      1.65374         1.708750      1.323772      2.187143
O       3.80992      9.58800     14.72242         0.657997      0.514539     -0.168993
O       0.11223     10.08160      1.86060        -3.030207     -0.157897     -0.116573
O       0.05461      9.78711     14.73197        -2.080895     -0.043147      0.402825
O       3.76559      9.92741      6.11489         0.653724     -0.346994      1.288515
O       0.03908      9.92440      6.30353        -0.839480     -1.222921     -0.329596
O       3.73703      9.85393     10.76579         1.862984     -1.005017     -0.582914
O      15.48516     10.03296     10.60985         2.260399      0.208301     -0.790394
O       7.80971      2.07599      2.05577         0.220751     -0.244169      0.201515
O       7.82616      1.97314     15.10120        -0.097021     -0.809601     -1.358209
O       7.75821     13.71085      2.34129         2.996409     -0.278337     -0.819213
O       7.84888     13.60403     14.67851        -1.553963      0.091884      0.742404
O       7.65832      1.51738      6.52880         3.616504      1.583299     -0.427914
O       7.79526     13.71202      6.16461         0.579319     -0.223225      0.390451
O       7.95831      1.93413     10.32652        -2.651030      0.340555     -0.456817
O       7.87404     13.55273     10.43429        -2.450275     -0.038611      0.221767
O       7.65268      5.72490      2.39150         1.204115     -0.000224     -0.199236
O       7.90700      5.89678     14.20686        -0.277944      0.134687      1.704691
O       7.85393      5.89977      6.30611        -0.888348      0.699677     -0.507263
O       7.88411      5.73424     10.94369        -1.188275      0.427685     -1.068200
O       7.75939      9.50364      2.26221        -0.308165      1.038141      0.706872
O       7.78062      9.39327     14.63491         0.203146      0.671379      0.064607
O       7.78707      9.42470      6.26839         0.032089      0.212973      0.040187
O       7.64223      9.37808     10.63764         0.984536      0.814874     -0.767763
O      11.71479      2.08217      2.14389        -0.413229     -0.442872      0.102949
O      11.82037      2.17578     14.48605        -2.814984     -0.832395      0.645937
O      11.89529     13.88879      2.48970        -0.292475     -0.521062     -1.514923
O      11.72614     13.68826     14.66876        -2.356965     -0.238103      0.988990
O      11.73767      2.31232      6.10128        -1.386796     -0.370019      0.870480
O      11.59687     13.54418      6.60763         0.319362     -0.158796     -0.177981
O      11.64774      1.98675     10.63455         1.855654     -1.093240     -0.549692
O      11.47781     13.50997     10.48017         3.784831      0.198128     -0.091183
O      12.03095      6.21397      2.45996        -2.223033     -0.874351     -0.663667
O      11.83408      5.98997     14.54119        -0.839883     -0.103635      0.330473
O      11.80939      5.58923      6.00708         1.027812     -0.567428      1.024208
O      11.83535      5.82214     10.41505         0.402279     -0.194360      0.531180
O      11.69988      9.44110      2.28189        -0.448515      0.286793     -0.036181
O      11.66557      9.78912     14.56925         0.139285     -0.463784      0.577898
O      11.78374      9.74563      6.32931        -0.883894      0.183480     -0.185296
O      11.83037      9.99222     10.48816        -1.295745     -0.107370     -0.461580
O       2.01611      3.80526      1.95083         0.190838     -0.645902      0.505866
O       1.93576      3.88106     15.28502         0.452980     -1.459329     -0.940737
O       1.73377     15.45469      2.47222        -0.747833      1.542882     -0.734560
O       1.78549     15.59962     14.76427        -0.104566     -0.852332     -1.712204
O      13.68969      4.00501      2.07894        -0.365767      0.766574      0.056143
O      13.54139      3.91913     14.69413         0.243296      0.488881      0.127870
O      14.18046      0.12266      1.94790        -1.795333     -3.512103      0.941533
O      13.60665     15.50770     14.53779         0.272599      2.394183      0.402693
O       2.02945      3.97941      6.08408        -0.340449      1.027682      1.047028
O       2.36180      0.03391      6.20946        -1.066994     -0.404666      0.469191
O      14.17593      3.80519      5.88398        -1.936531      0.623114      1.899645
O      13.57625      0.08973      6.23308        -0.063160      0.656647      0.878981
O       2.21665      3.89321     10.45980        -0.976644     -2.118139     -0.862249
O       2.03966     15.55604     10.51579        -0.541961      1.838465      0.014148
O      13.68963      3.76057     10.66796         0.210864      0.702676     -1.191224
O      13.75314     15.50352     10.51989        -0.618969      1.056620      0.098656
O       1.83913      7.85862      1.91883        -0.137707      0.102775      1.525752
O       1.99885      7.63305     14.49494        -0.474791      1.090285      0.184642
O      14.24111      7.75516      1.98661        -0.539148      1.753870      1.704991
O      13.88213      7.76077     14.54299        -0.779023      1.271803      0.028074
O       1.85111      7.77337      6.09443         0.399565      1.341510      0.809890
O      13.38612      7.65341      6.21031         1.705602      0.503586     -0.183355
O       1.78921      7.95991     10.38953         0.666442      0.046555      0.022479
O      13.57978      7.88701     10.30798         0.567892     -0.541996      0.583118
O       2.35751     11.80071      2.09561        -0.314872     -1.311306     -1.291009
O       1.77581     11.62313     14.18035         1.327017      0.161840      1.352141
O      13.34150     11.56001      1.92259         0.516545      1.505894      1.164814
O      13.51245     11.73913     14.51918         1.011789     -2.700799      1.525942
O       1.86806     11.84185      6.30856        -0.927310     -1.859854      0.593261
O      13.61234     11.68567      6.35715         0.391075     -0.812104      0.579638
O       2.20663     11.79769     10.52337        -0.640687     -0.917088     -0.073800
O      13.65687     11.82772     10.11615        -0.453194     -0.924219     -0.029421
O       5.55438      3.78099      2.25406         0.820323     -0.660845     -0.122371
O       5.93865      3.85566     14.76860         0.078403     -0.584760      0.439363
O       5.91307      0.03394      2.49776         0.409336     -0.956283     -1.235583
O       6.02437     15.51427     14.80879         0.147257     -1.165316     -0.215317
O       5.92918      3.88026      6.35418         0.368655      1.071732      0.408484
O       5.72539     15.43881      6.45161        -0.947798      0.462651     -0.520223
O       5.81849      3.85057     10.41992         0.058944     -1.323235      0.361306
O       5.82485     15.58861     10.62582         0.644884      0.762726      0.504947
O       5.53883      7.75985      2.40374         1.037086      1.122730      0.475766
O       5.79818      7.68068     14.50483        -0.107493     -0.205210      0.068171
O       5.72446      7.84359      6.38244        -0.071570     -0.071650     -0.473882
O       5.63424      7.73582     10.92587         0.092574     -0.354645     -0.984409
O       5.79118     11.73476      2.35149        -0.057890     -0.998169     -0.558055
O       5.69342     11.54877     14.80349         0.736782      1.428437      0.094005
O       6.10776     11.74233      6.40198        -0.308138     -2.546743     -0.047056
O       5.56031     11.73886     10.38593         1.094852     -0.688596     -0.205349
O       9.90248      3.98409      2.38040         0.052210     -1.025600      0.141620
O       9.74888      4.04708     14.40555         0.394808     -1.671093      0.244859
O       9.83934      0.18999      2.16193        -0.434029     -2.378112      0.210493
O       9.70307      0.06299     14.71269        -0.042579     -1.154924      0.416394
O       9.56419      3.95023      6.23532        -0.038395     -1.666489      1.263602
O       9.88595     15.58996      6.52657        -0.022620      0.827969     -0.444964
O       9.82803      3.90927     10.63693        -0.182323     -0.693079      0.005025
O       9.64210     15.47962     10.39502         1.308365      0.767807     -0.077886
O       9.70800      7.59553      2.35605        -0.181819     -0.220515     -0.492006
O       9.92770      7.77073     14.95768        -0.444426      1.175519     -0.082770
O      10.05496      7.65331      6.60452        -0.416548      1.237456     -0.435754
O       9.99197      7.68913     10.47903        -0.050033      1.561479      0.489700
O       9.93985     11.71345      2.39073        -0.125942      0.072983     -0.155234
O       9.35402     11.51321     14.67068         1.414105      0.444558      0.482297
O       9.69393     11.46990      6.10817         0.456725     -0.371234      0.691712
O       9.44726     11.53075     10.88419         0.889372      0.256769     -1.499336
