  # total energy = -7848.67381051 
CRSYTAL
PRIMVEC
    15.6080000000000005    0.0000000000000000    0.0000000000000000
     0.0000000000000000   15.6080000000000005    0.0000000000000000
     0.0000000000000000    0.0000000000000000   16.6239999999999988
PRESSURE
2.223 0.82677 -3.31237 0.039016 -0.003621 -0.043358
PRIMCOORD
320 1
Pb       3.88070      4.10456      4.20867        -0.364742     -0.180131     -0.596352
Pb       3.87178      4.08886      0.17498         0.125631     -0.917067      0.126098
Pb       3.96156      0.11795      4.39737        -0.490653     -0.118486     -0.877844
Pb       3.76478     15.41898     16.52804         1.153995      0.030553      0.630779
Pb       0.06900      4.01385      4.25112         0.483581     -0.360022     -0.041808
Pb       0.04859      3.78401      0.02632         0.372053     -0.603509      0.248698
Pb      15.54306     15.50145      4.46765        -0.494250      0.387871     -0.878274
Pb       0.31486     15.42302     16.59557        -1.488090      1.221479      1.422283
Pb       3.90207      3.69975      8.31785         0.055486      0.856804      0.173775
Pb       3.82875      0.00231      8.26328        -0.145599     -0.364293      0.741412
Pb      15.41082      4.09252      8.16731         0.531452     -1.442411      0.340106
Pb      15.41724      0.18313      8.15238         0.140265     -0.370133      0.831640
Pb       4.10138      3.87255     12.40045        -0.032482      0.007730     -0.194892
Pb       3.84355     15.57001     12.39137        -0.115353     -0.077712     -0.208641
Pb      15.60713      3.64564     12.59447        -0.338553      0.471339      0.029683
Pb       0.07331      0.10326     12.33350        -0.255643     -0.032945     -0.042383
Pb       3.68618      7.88370      4.26436         0.527585     -0.481015      1.141575
Pb       3.60980      8.04951      0.12772         1.323951      0.122290     -0.602444
Pb      15.48724      7.95791      4.10300         0.901607     -0.163004      1.573309
Pb       0.06311      7.91152      0.17907        -0.517445      0.851183     -0.130636
Pb       3.76085      7.92345      8.54225         0.823048      0.216402      0.237041
Pb       0.00446      7.52008      8.43674         0.251283      1.092594      0.449717
Pb       3.87553      7.78258     12.65733        -0.127594     -0.391929     -0.452643
Pb       0.23287      7.49262     12.75874        -0.970154      0.436065      0.372290
Pb       3.90152     11.74933      4.25596         0.743453     -0.094135     -0.051764
Pb       3.77490     11.75960     16.56215         1.091772      0.306075     -0.315984
Pb      15.49821     11.62104      4.61696        -0.848727      0.221926     -0.214119
Pb       0.07209     11.82032      0.02062        -2.323204     -1.319695      0.098841
Pb       3.94021     11.70024      8.65062        -0.816297     -0.674157     -0.007153
Pb      15.52666     11.24916      8.30347        -0.322093      0.398336      0.733224
Pb       3.57695     11.82518     12.46847         0.510886      0.009338      0.153392
Pb      15.47537     11.71494     12.38895         0.322996      0.707754      0.702906
Pb       7.71638      4.14595      4.26678         0.264503     -0.967629     -0.523546
Pb       7.85400      3.65075      0.02700        -0.365009     -0.315363      0.311113
Pb       7.65037      0.14582      4.01435         1.606589      0.034122      0.476462
Pb       7.73917      0.21673      0.08102         0.428140     -0.641546      0.280619
Pb       7.90487      3.93678      8.64686        -0.377553     -0.392438     -0.153582
Pb       7.78302      0.22072      8.30731         0.765186     -0.059590      0.413596
Pb       7.97014      3.74240     12.64837        -1.573461      0.070061     -0.615729
Pb       7.64697     15.33574     12.62796         0.440040      0.583808      0.255824
Pb       7.78347      7.72061      3.93235        -0.113296      0.256791      0.892989
Pb       7.87188      7.94707     16.37343        -0.922169     -0.879357      1.642460
Pb       7.91748      7.71931      8.29726        -0.761992     -0.237145     -0.548611
Pb       7.60734      7.69071     12.72486         0.103364     -0.622237     -0.713036
Pb       7.59931     11.92109      4.27257         0.282371     -1.059485     -0.697480
Pb       7.57326     11.32982     16.60809         1.741624      2.277493      0.005495
Pb       7.51962     11.90001      8.56040         0.636583     -1.314755     -0.150098
Pb       8.00224     12.00691     12.71285        -0.543088     -0.922138      0.977238
Pb      12.02965      4.01199      4.04194        -0.499899      0.253992     -0.317677
Pb      11.95796      3.79128      0.08897        -0.600564      0.228469     -0.529949
Pb      11.80592     15.53218      4.03359        -0.567705     -0.391005     -0.458033
Pb      12.04479     15.54279      0.22879        -0.796348     -1.021879      0.201105
Pb      11.59284      3.98956      8.34797         0.206800     -0.227104      0.275633
Pb      11.40412      0.20442      8.15241         0.745576     -0.708619      0.951152
Pb      11.78523      3.86930     12.70346         1.319665      0.781194     -0.128165
Pb      11.71409      0.01426     12.18673         0.002492     -1.342750      0.315290
Pb      11.66602      7.71402      4.11541        -0.815106     -0.673354     -0.632409
Pb      11.90378      7.72621     16.53544        -1.672137      0.293577      0.513490
Pb      11.55549      7.79421      8.30923         0.013115     -0.306761      1.013257
Pb      11.71308      7.76759     12.39598        -0.018289     -0.555668      0.457558
Pb      11.62785     11.71122      4.35009        -0.789137      0.313317     -0.723573
Pb      11.73486     11.64909      0.19130        -0.921856      0.677581     -0.145048
Pb      11.75488     11.14965      8.16390        -0.563369      1.708628      1.304707
Pb      11.41923     11.54693     12.20294         0.866531      0.766845      0.838379
Ti       1.93637      1.90392      2.22916        -0.297142      0.032453     -0.650150
Ti       2.14107      1.94443     14.70684        -1.056743     -0.812875     -0.101964
Ti       1.88004     13.51966      2.38276         1.230925      2.429695     -0.660541
Ti       1.72628     13.69372     14.64661         1.948182     -0.517782     -2.563618
Ti      13.67362      1.94563      1.95684         1.842301     -1.804168      0.247534
Ti      13.79820      1.82215     14.49016        -1.039605      1.534769      2.633757
Ti      13.78108     13.47021      2.09475        -1.834771      3.119085      0.343411
Ti      13.51083     13.68600     14.25778        -0.788955     -0.706517      0.452209
Ti       2.07840      1.96018      6.27623        -1.922252      1.024755     -1.177042
Ti       1.87699     13.68532      6.40186         0.086282     -0.126888      1.507939
Ti      13.62150      1.89568      6.11903        -0.370934      1.941018     -0.211258
Ti      13.33920     13.67986      6.48733         1.499692     -0.288083     -0.682500
Ti       1.87909      1.96698     10.30578         1.771991      1.073605     -0.949796
Ti       1.69632     13.77773     10.42740         2.518575     -0.539137     -0.648692
Ti      13.51572      1.95406     10.28981         2.447331      0.495613      0.979615
Ti      13.67820     13.52422     10.22379        -0.792069     -0.184239     -1.069152
Ti       1.86477      6.03640      2.33590         0.408352     -1.720021      0.552758
Ti       1.91180      5.81850     14.96485         0.935161     -0.346986     -0.515110
Ti      13.86703      5.99497      2.27306        -3.333550     -1.453097      0.067275
Ti      13.76477      5.96893     14.94923        -0.794788     -1.015282     -3.574116
Ti       1.99037      5.97869      6.57462         1.023677     -0.000291     -2.497964
Ti      13.80705      5.88655      6.33601        -0.979638     -3.975104     -1.649995
Ti       1.94056      5.77802     10.60235         1.342850      0.320244      1.005880
Ti      13.74658      5.88421     10.72477        -1.398539     -1.843948      1.481911
Ti       1.90339      9.96728      2.31493        -2.078081     -0.525923     -0.351767
Ti       1.79203      9.78788     14.77227         0.602156     -0.051739     -0.838916
Ti      13.49073      9.70999      2.19581         0.430420      2.143785     -0.329141
Ti      13.51440      9.82009     14.80068         0.580547     -1.555403     -0.222712
Ti       2.04460      9.90130      6.39744        -0.325337     -1.865975      0.955232
Ti      13.63946      9.45168      6.33555         0.595599      1.191683      1.040675
Ti       1.90807      9.64254     10.82826         2.581519     -0.530326     -1.527041
Ti      13.74598      9.64791     10.78146        -1.325983      0.651871     -2.126140
Ti       5.71308      1.82906      2.18702        -0.041518      1.630744     -1.385462
Ti       5.84972      1.85581     14.64527        -0.784416      0.343714     -0.824298
Ti       5.80866     13.67434      2.31954        -1.539424     -1.367185     -1.680624
Ti       5.75250     13.50116     14.77232        -0.908010     -0.070946      1.585610
Ti       5.87896      1.88821      6.35115         1.740902      1.320059     -0.230610
Ti       5.69999     13.57889      6.49632         1.075829      0.072353     -0.187323
Ti       5.76711      1.92065     10.27669         1.230169     -0.267037      1.201480
Ti       5.75826     13.62521     10.66282        -1.160523      0.860297     -1.720982
Ti       5.75804      5.86571      2.01731         0.569177     -0.158233     -0.532257
Ti       5.78036      5.76935     14.56280         0.018781     -0.708349      0.628989
Ti       5.94017      5.77920      6.17238        -0.556051      1.551142      1.864354
Ti       5.75467      5.81812     10.38475         1.076007     -0.069564      2.770299
Ti       5.81205      9.69962      2.26244         1.542450      0.959882     -0.031054
Ti       5.75702      9.61086     14.46487        -0.662792      1.503722      1.037194
Ti       5.82640      9.64626      6.22292         0.900251     -1.667711     -0.312067
Ti       5.82761      9.65740     10.55691        -1.593616     -1.127997     -1.406818
Ti       9.83967      1.97990      2.32448        -1.032943     -1.019852      0.399645
Ti       9.97682      1.94050     14.61764        -0.578366     -1.608272      2.116654
Ti       9.73194     13.69247      2.10004         2.251705     -0.658533     -1.592676
Ti       9.78957     13.77972     14.68378        -1.682593     -1.028915      1.484993
Ti       9.78493      1.97060      6.35896        -1.056004     -1.384285     -1.297464
Ti       9.57990     13.51193      6.15883         1.723043      0.632744     -0.062726
Ti       9.78705      1.85624     10.74720        -2.374349      0.346782     -2.105057
Ti       9.66718     13.52215     10.36070         0.461781      1.056629     -0.208257
Ti       9.65027      5.78283      2.01268         2.231612      0.548363      1.446876
Ti       9.71666      5.73497     14.58081         1.132932      1.672720      0.628051
Ti       9.91475      5.59739      6.12860        -0.428534      2.517273     -0.120051
Ti       9.69489      5.81078     10.60847        -0.495710      0.217196     -1.126700
Ti       9.69059      9.71237      2.27052        -0.899373      0.959733     -1.286884
Ti       9.73852      9.52398     14.47075         0.003674      1.852722      1.086153
Ti       9.68660      9.47486      6.18064         0.145843      1.408515     -0.763886
Ti       9.55884      9.62977     10.53187         0.882726     -0.289012     -1.417015
O       1.90247      1.75464      0.25473         0.198325     -0.471877      0.392411
O       1.91038      2.11087     12.90459         0.298331     -0.420440     -0.816452
O       1.60888     13.36362     16.52394         1.806453      1.741125      0.436163
O       1.83437     13.69257     12.61449        -0.036869     -0.622776     -0.007785
O      13.41988      1.80299     16.53441         0.976140      1.471038      3.101181
O      13.65867      2.07306     12.74577        -0.006256      0.070526     -2.140687
O      13.92324     13.71699      0.31586        -0.944649     -0.672428     -1.243492
O      13.60185     13.26307     12.46432        -0.564462      0.492210      1.318415
O       2.12309      1.80229      4.29968         0.043678      0.549827      2.018294
O       2.04364     13.26989      4.18971        -0.246508      0.504761      1.125769
O      13.52217      1.88682      4.31876         1.108838     -0.060777      0.009778
O      13.69452     13.83994      4.45163        -0.388637     -0.429754      0.271080
O       2.03363      2.01786      8.43017        -0.019773     -0.754335      0.106452
O       1.89510     14.01746      8.47896        -0.230721     -0.791785     -0.009799
O      13.62887      2.12397      8.52320        -0.161583     -0.390767     -1.220256
O      13.86104     13.98886      8.38857        -0.378869     -1.159069      0.584241
O       1.68968      5.67586      0.30084         1.031357      1.384096     -1.234567
O       1.94593      6.08294     12.53775        -0.324103     -1.787120     -1.541581
O      13.89906      6.13711      0.07443        -0.051225     -0.227534      1.796032
O      13.78182      5.70063     12.58151        -0.044748      1.044695     -1.453020
O       1.81435      5.80199      4.18273         0.279976     -0.186739     -0.578562
O      13.87535      5.86108      4.18012         0.447309     -0.064362     -0.242173
O       2.10691      5.92234      8.35693        -0.356509      0.065487      1.301617
O      13.83850      5.74795      8.10987        -1.207186      0.789705      2.900691
O       1.92563      9.65843      0.12757         0.094121     -0.293213     -0.676623
O       1.97478      9.53592     12.63192        -0.665334      0.616980      0.428763
O      13.46373      9.68978      0.08449         0.342495     -0.237414      1.013565
O      13.42930      9.68368     12.54066         1.009947      1.227094     -0.050961
O       1.88760     10.11637      4.36172         0.048280     -0.375069     -1.701761
O      13.78688      9.82307      4.17500        -0.543164     -0.317546      0.519194
O       2.06274      9.52396      8.27288        -0.246025      0.382801     -0.638997
O      13.81147      9.50048      8.31913        -0.508795     -0.203388     -1.723975
O       5.72355      1.89563      0.35854         0.214949     -0.128574     -0.383728
O       5.84466      2.06774     12.76975         0.203337     -0.453992      0.949172
O       5.59473     13.41004      0.07098         1.138204      0.364267     -0.239100
O       5.65927     13.52992     12.40750         0.094854     -0.060229      2.093763
O       5.90254      1.80101      4.50748        -0.471968      0.257386     -0.690873
O       5.61107     13.46698      4.22558         0.916321      0.786617      0.431342
O       5.98836      1.95218      8.47332        -0.678298     -0.578454     -0.591983
O       5.77944     13.37647      8.53646        -0.149817      1.202700     -2.085746
O       5.84153      6.03633      0.16844        -0.495976     -1.012922      2.265108
O       5.92118      5.54151     12.77835        -0.150963      0.103885      0.048426
O       5.93426      5.75821      4.40786        -0.749251     -0.387222     -1.769215
O       5.98137      5.79126      8.70585        -0.295583      0.091894     -3.179416
O       6.22161      9.71493      0.10545        -2.464511     -1.625466      1.707703
O       5.46226      9.81838     12.71752         2.079853     -0.381224     -0.610155
O       5.79361      9.60319      4.32904        -0.145306      0.491674      0.109152
O       5.67916      9.45103      8.63185         0.210441      0.426213     -0.177202
O       9.83007      2.15603      0.11759        -0.200224     -0.021386      0.075210
O       9.71037      1.68321     12.58708         0.276899      0.598809      0.746699
O       9.91060     13.71786      0.15412        -0.987423     -0.444613      0.160522
O       9.72010     13.86664     12.75499        -0.893099     -0.703845     -1.542264
O       9.66459      1.64698      4.29691         0.063368      0.887645     -0.126641
O       9.98623     13.65620      4.34042        -0.540732     -0.299836      1.878419
O       9.86363      1.95735      8.38297         0.295294      0.399233     -0.098327
O       9.58193     13.44906      8.61616        -0.185578     -0.003363     -0.056677
O       9.98123      5.79413      0.28280        -1.181879     -0.719393     -0.559983
O      10.07013      6.02316     12.82479        -0.815093     -0.697990     -1.546569
O       9.83664      5.81984      4.37687        -0.272633     -0.036812      0.489906
O       9.51705      5.67202      8.71902         1.408040      0.223594      0.276354
O       9.61711      9.71095      0.37071        -0.084945      0.210629      0.391997
O       9.77151      9.35824     12.68189        -0.009815      0.714238     -1.182301
O       9.89030      9.61863      4.30926         0.180066     -0.504339      1.176378
O       9.83784      9.56564      8.69444        -0.270169     -0.085312     -0.348165
O       3.89505      1.74303      2.41899         0.513799     -0.060750      0.044846
O       3.96338      1.60268     14.89210        -0.900251      0.839682     -0.306270
O       3.98830     13.69773      1.96225        -0.730656     -0.327219      1.034933
O       3.73892     13.73886     14.68422        -0.939042     -0.508368     -0.119506
O       0.04063      2.09163      2.37947        -1.639831     -0.210740     -0.274553
O      15.54047      1.94752     14.88431         0.745796     -0.042961     -0.489807
O       0.06191     13.48096      2.16693         1.143290     -1.015405      0.818691
O      15.25901     13.56760     14.58812         1.793321     -0.117830     -0.221621
O       4.04552      1.82969      6.70856        -1.526893      0.976323     -0.673875
O       3.92428     13.41700      6.35302        -0.551093     -0.158761      0.114760
O       0.11653      1.64734      6.36317         0.377271      1.151122     -0.593070
O       0.10983     13.88861      6.27447         0.500240     -0.388442      0.106843
O       3.88819      1.91905     10.56831        -0.457934     -0.229877     -0.029232
O       3.79381     13.93028     10.62146        -0.347425     -0.888957     -0.387266
O       0.18709      1.96669     10.71539        -2.456726      0.892201      0.303231
O      15.51589     13.59561     10.89347         0.694272     -0.379797     -1.078547
O       3.76113      5.75567      2.28579         1.287170      0.991222     -0.284218
O       3.81556      5.75305     14.59849         0.141741     -0.447000      0.880968
O       0.00781      5.68853      2.27754         1.214204     -0.018533     -0.390901
O       0.13797      5.69625     14.60645        -1.301304      0.091626      0.126006
O       3.86421      6.10066      6.19657        -0.143289     -0.678944     -0.066913
O       0.07755      5.86273      6.48847         0.141142     -0.266076     -0.467294
O       3.95979      5.75911     10.90045        -1.380451     -0.119173     -0.969104
O       0.03529      5.91483     10.40157        -0.035596     -0.140875     -0.263296
O       4.00361      9.57277      1.98184        -1.143880     -0.450905      0.322761
O       3.79146      9.59537     14.61922        -0.154915     -0.657715      1.688562
O      15.60335     10.20630      1.92202         1.826369     -0.775648      1.333986
O      15.53684      9.77493     14.78505         0.895048      0.065012     -0.250347
O       3.94522      9.75609      6.20120        -1.429683      0.033772      0.396393
O      15.53575      9.85875      6.34223        -0.414464     -0.252994     -0.542441
O       3.93881      9.51565     10.78959        -1.750561      0.139163     -0.840587
O       0.13038      9.92084     10.61322        -2.242496     -0.278323     -0.013006
O       7.81839      1.99547      2.01827         0.672038     -0.323577      0.750874
O       7.63834      1.86987     14.91088         2.106531      0.299347      0.169557
O       8.00780     13.99387      2.32148        -3.729389     -1.678169      0.421089
O       7.52854     13.66986     14.41009         2.013530     -0.338087     -0.343848
O       7.86586      1.69104      6.51998        -1.333290      0.219434     -0.207981
O       7.77629     13.73035      6.15685        -0.479157     -0.404853      0.615867
O       7.88735      2.04438     10.35341         0.168137     -0.776823      0.737927
O       7.64969     13.50229     10.60748         1.118555      0.388849      0.005687
O       7.83442      5.67272      2.46332        -0.825999      0.272742     -1.006103
O       7.85165      5.91660     14.51642         0.048868     -1.037748      0.438174
O       7.75641      5.91729      6.26829         1.516275     -0.631508      0.379931
O       7.75200      5.88743     10.69302         2.309906     -0.850336      0.922765
O       7.75666      9.91793      2.52018         1.191530     -1.443082     -0.362455
O       7.73682      9.43913     14.62376        -0.205093      1.050488     -0.586376
O       7.93559      9.40733      6.35191        -0.961449      0.215219      0.277658
O       7.71905      9.59206     10.49097         0.624135      0.075635      0.733452
O      11.84144      1.69982      2.39924        -0.598719      1.222970     -1.089558
O      11.70491      2.20689     14.84950        -0.127438     -0.636070     -1.758637
O      11.76090     13.74626      2.12156         1.098905      0.391284      0.599437
O      11.46678     13.51262     14.65468         4.254928     -0.223351     -0.157470
O      11.65927      2.06863      6.30336         0.905433     -0.182096      0.582076
O      11.58504     13.60063      6.66487        -0.197300      0.192381     -0.357180
O      11.75572      1.81789     10.69854        -0.969132      0.328113     -0.206719
O      11.85673     13.45527     10.55206        -1.704575      0.568906      0.052551
O      11.88899      5.93082      2.45612        -0.195612      0.797460     -0.367484
O      11.69744      6.07571     14.92045         1.069005     -0.816048     -0.559135
O      11.87659      5.61637      6.09351        -1.815764     -0.124027      1.030961
O      11.84557      5.84907     10.59813        -0.668056     -0.306717     -0.346288
O      11.67360      9.40415      2.21855         1.280989      0.908402      0.342204
O      11.63474      9.45835     14.74398        -0.544754      0.302743     -0.139484
O      11.67753      9.55418      6.53136         1.870836     -0.662496     -0.546200
O      11.68149     10.11711     10.48216         0.689346     -1.408888      0.519806
O       2.05233      3.72870      2.22437         0.324603      0.943508      0.209958
O       1.90139      3.65648     15.14446         0.667026      2.662264     -0.324549
O       1.86256     15.42916      2.29024         0.020028     -1.225455     -0.063382
O       1.73263     15.54076     14.60359        -0.057144     -0.338388      0.749473
O      13.56377      4.03869      1.96576         0.250667     -1.396578      0.242361
O      13.64169      4.07497     14.61615        -0.238626     -0.220283      1.000743
O      13.85934      0.01611      1.99524        -0.304627      1.528444      0.720249
O      13.44157      0.05337     14.56306        -0.207600     -3.089904     -0.694015
O       1.85410      3.94928      6.32738         0.909525     -1.157324      0.013517
O       2.25885      0.04393      6.28967        -0.067420     -1.799532      0.157090
O      13.80956      3.87395      6.27102         0.782391     -1.112794     -0.124342
O      13.75099      0.09039      6.44441        -1.011487     -0.626003     -0.038771
O       2.07689      3.95052     10.33102        -0.397862     -0.209488      0.644580
O       1.76855      0.07623     10.67624         0.507389     -1.037947      0.111668
O      13.72746      3.83172     10.55811         0.013779      0.809942     -0.052977
O      13.93018      0.08518     10.50712        -0.784593     -0.464919      0.640053
O       1.64990      7.92586      2.44535         0.944963     -0.158682     -0.980221
O       1.86133      7.60393     14.51264        -0.044310      1.525292      1.928751
O      14.06819      7.97975      2.16742        -0.139277     -1.685878     -0.242016
O      13.82185      7.90151     14.57243         0.028392     -2.076386      0.534534
O       1.66079      7.80495      6.00396         1.201543      0.826563      0.681306
O      13.68392      7.60393      6.09276        -0.195584      4.669416      0.031656
O       1.96219      7.78216     10.37141        -0.281754      0.218478      0.282525
O      13.64367      7.84222     10.45744         0.389184      0.001374      0.328301
O       2.53237     11.57289      1.93401        -1.459681      1.738635      1.153527
O       1.96896     11.62716     14.59378        -0.519281     -0.198060     -0.259298
O      13.46953     11.74627      2.20673        -0.509941     -2.822368      0.081561
O      13.44502     11.57162     14.94168        -0.099909      2.666765     -1.088173
O       1.78485     11.70900      6.78326         0.637717      1.287846     -1.608130
O      13.56275     11.82353      6.48799         0.638142     -0.856167     -0.192779
O       2.18391     11.71175     10.37063        -0.583401      0.223311      0.791527
O      13.75627     11.61103      9.88593         0.365060      0.909753      1.924063
O       5.72502      3.84345      2.39050        -0.084383      0.945494     -0.218234
O       5.92057      3.89136     15.01584        -0.522392     -0.461709     -0.122129
O       5.88547     15.51137      2.17924         0.423904      0.953443      0.684698
O       5.82923     15.38465     14.85647        -0.112680      2.565732     -0.221382
O       5.83459      3.85864      6.52550        -0.177525     -0.372417     -0.460607
O       5.67166     15.48207      6.35235         0.340754     -0.846394      0.856637
O       5.82439      3.73813     10.53142        -0.228448      1.356627      0.397095
O       5.80480      0.03926     10.52654         0.523304     -1.287494      0.461732
O       5.88264      7.72237      2.55257        -0.080691     -0.690023     -1.193442
O       5.88210      7.69005     14.78718        -0.674377      0.151269     -0.972475
O       5.94385      7.75761      6.39000        -0.629623      0.368913      0.255576
O       5.76828      7.61323     10.84394         0.397812      1.553338      0.241049
O       5.98944     11.66179      2.41285        -0.711882     -0.146662     -0.521641
O       5.69554     11.58996     14.82032         0.456427     -0.700333     -0.746327
O       6.13123     11.51779      6.34709        -0.274341      1.510772      0.432203
O       5.54758     11.48825     10.25409         0.963493      1.962069      1.496205
O       9.95567      3.90716      2.62567        -0.177830     -0.678513     -1.253951
O       9.77223      3.82677     14.35536        -0.734786      0.564679      0.468250
O       9.80961     15.56548      2.26800         0.666001      2.456380     -0.028028
O       9.73509      0.03493     14.69411        -0.189938      1.022414      0.375706
O       9.48510      3.82334      6.41409         0.646903      0.369144      0.026676
O       9.86002     15.55249      6.61136        -0.811551     -0.828763     -0.582811
O       9.80716      3.75277     10.55860         0.443159      1.590323      0.959500
O       9.77266     15.59368     10.42231         0.332636     -1.413241      0.213431
O       9.75927      7.73125      2.42497        -0.681556     -0.572003     -0.174348
O       9.54398      7.71977     14.90217         1.454201     -0.082290     -0.439730
O       9.93809      7.53266      6.75816        -0.419710      0.118905     -1.017452
O       9.90058      7.74533     10.58745        -0.002574     -0.580700      0.229568
O       9.90738     11.75698      2.52936         0.156336     -1.323790     -0.501154
O       9.38244     11.58418     14.65778         0.683447     -0.513398     -0.565249
O       9.82721     11.41988      6.40344        -0.312149      1.618869     -0.470714
O       9.50006     11.64632     10.79380         0.646347      0.194382      0.043654
