  # total energy = -7882.66431681 
CRSYTAL
PRIMVEC
    15.464    0.0000000000000000    0.0000000000000000
     0.0000000000000000   15.464    0.0000000000000000
     0.0000000000000000    0.0000000000000000   17.350608
PRESSURE
0.966243 0.83005 3.4759 -0.02933 0.061135 -0.017087
PRIMCOORD
320 1
Pb       3.79205      4.06206      4.25054         0.349916     -1.369593      0.836513
Pb       3.73070      3.90908      0.11218         0.899841     -0.241045     -0.486183
Pb       3.77284     15.36016      4.29503         0.963772      0.603305     -0.243850
Pb       3.72054     15.36051     17.33827         0.797350      0.302622      0.188501
Pb      15.45784      3.87531      4.27575        -0.105302     -0.082989      0.063416
Pb       0.04140      3.95000     17.28102        -0.567141     -0.228567      0.011058
Pb       0.05796     15.45381      4.37261        -0.665769      0.183356     -0.534020
Pb       0.05844     15.44840     17.28811        -0.107496      0.364245     -0.148106
Pb       3.90125      3.86116      8.62274        -0.168126     -0.305975      0.596098
Pb       3.79504      0.01407      8.61723        -0.014467      0.287519     -0.122606
Pb       0.07973      3.87498      8.73108        -0.440865     -0.074725     -0.054260
Pb       0.00568     15.41008      8.57411        -0.440942      0.453130      0.476373
Pb       3.94317      3.79912     13.00495         0.112905      0.243550     -0.342524
Pb       3.84362     15.42229     12.96158        -0.162983     -0.009132      0.440152
Pb       0.04828      3.76208     12.94154        -0.508762      0.520872      0.534268
Pb       0.02855     15.43223     12.99038         0.527537      0.273590      1.182474
Pb       3.79492      7.73018      4.36180         0.544478      0.057200     -0.247167
Pb       3.87508      7.69882     17.24370        -0.114883      0.018019      0.080510
Pb       0.04629      7.73272      4.32815        -0.422187     -0.171789      0.020629
Pb      15.43913      7.67550     17.21765         0.049495     -0.279643      0.112464
Pb       3.86327      7.74155      8.60013         0.063356     -0.391076      0.222782
Pb      15.39525      7.73252      8.57998        -0.034706     -0.579905      0.681432
Pb       3.82810      7.70142     12.95300         0.133652     -0.095865     -0.033798
Pb      15.43023      7.67436     13.03563         0.569272      0.068282      0.195170
Pb       3.67286     11.54073      4.22223         1.301079      0.093368      0.379260
Pb       3.75919     11.58491     17.27002         0.623562     -0.057529      0.541981
Pb      15.45013     11.50582      4.23128        -0.408035      0.005026      0.198521
Pb       0.00145     11.54635     17.25588         0.114427      0.166106      0.326072
Pb       3.76634     11.56369      8.44653         0.783580      0.467643      1.443241
Pb      15.44688     11.54507      8.72135         0.083858      0.012500     -0.310699
Pb       3.85948     11.59650     12.90020        -0.473583      0.147532      0.733766
Pb      15.42151     11.62194     13.09649         0.420492     -0.482341      0.054446
Pb       7.69659      3.93337      4.19050         0.482173     -0.246786      0.387442
Pb       7.69545      3.91441     17.31347         0.217755      0.088229      0.541643
Pb       7.62367     15.46100      4.31232         0.009812      0.160125     -0.500029
Pb       7.74322     15.43976     17.27931        -0.443018      0.240088      1.122221
Pb       7.69649      3.81149      8.69290         0.514458      0.079696      0.145805
Pb       7.67611     15.41857      8.58628         0.554624      0.406940     -0.243908
Pb       7.69277      3.79634     12.93743         0.285258      0.482367      0.324016
Pb       7.64457     15.32949     12.88653         0.760351      0.134569      1.392071
Pb       7.62700      7.66267      4.27677         0.526772      0.361503      0.316729
Pb       7.62115      7.60698     17.24247         0.793497      0.068556      0.140118
Pb       7.75389      7.73119      8.60526         0.181777     -0.221256      0.587354
Pb       7.65729      7.67314     12.89960         0.173011      0.208384      0.452098
Pb       7.66335     11.55952      4.17658         0.050829     -0.161110      0.484525
Pb       7.72438     11.56972     17.31743        -0.095714      0.166608      0.074058
Pb       7.61857     11.57605      8.63220         0.287794     -0.020306     -0.128649
Pb       7.74784     11.63905     13.04917         0.448641     -0.167626      0.097850
Pb      11.71885      3.88548      4.13320        -0.502730     -0.221657      0.699140
Pb      11.64941      3.86085     17.27959        -0.428884     -0.263779      0.185753
Pb      11.56525      0.04321      4.19710        -0.202524     -0.309153      0.127987
Pb      11.60232      0.09940     17.25779        -0.436907      0.122914      0.656482
Pb      11.54903      3.77800      8.51974        -0.151350      0.201096      0.519876
Pb      11.61412      0.00536      8.67905        -0.285321      0.130628     -0.289481
Pb      11.63677      3.75991     12.94544        -0.019481      0.378159      0.414832
Pb      11.70870     15.40288     12.92975        -0.781758      0.023822      1.138281
Pb      11.57620      7.78952      4.33597        -0.372045     -0.554217     -0.119344
Pb      11.57846      7.78486     17.29202        -0.425729     -0.388862     -0.190739
Pb      11.69017      7.77002      8.53127        -0.552647     -0.937622      0.851077
Pb      11.62505      7.83435     12.91943        -0.507255     -0.405200      0.786466
Pb      11.57207     11.50935      4.19969        -0.506213      0.680049      0.167114
Pb      11.59194     11.47740     17.29947        -0.476030      0.232836      0.480452
Pb      11.65496     11.53673      8.64622        -0.689858      0.178108      0.223692
Pb      11.54929     11.54720     13.13739        -0.569819      0.223592     -0.328970
Ti       1.94907      1.85304      2.29314         0.926175      1.212458      1.412365
Ti       1.92280      2.02466     15.31120        -0.313403     -1.541440      0.593916
Ti       1.80597     13.49491      2.35154         2.043355     -0.251081     -0.357970
Ti       1.94235     13.49658     15.31804        -0.576411      0.538113     -1.245536
Ti      13.68675      1.85860      2.29481        -1.639362      1.083358     -1.232704
Ti      13.59666      1.86679     15.41007        -0.826787      1.806614     -0.652824
Ti      13.49405     13.54809      2.28644        -0.977674      0.093453      1.187822
Ti      13.53163     13.51397     15.45661        -0.498073      0.173011     -0.381453
Ti       1.87558      1.96287      6.58991         0.468393      0.621164      1.327959
Ti       1.85333     13.54573      6.59291         0.096848     -0.349604      2.585694
Ti      13.47394      1.81944      6.56652         0.412610      1.131574      1.071510
Ti      13.50834     13.48291      6.63390        -1.020920     -0.318636     -0.540090
Ti       1.92367      1.88532     11.06275         0.531462      0.126475      1.083441
Ti       1.78252     13.50135     11.02802         1.381780     -0.790031      2.188321
Ti      13.50447      1.89836     11.09263         0.414393      0.450948     -0.620499
Ti      13.49477     13.49466     11.09812         0.498950     -0.072524     -0.170829
Ti       1.95957      5.76333      2.32015        -0.792001      0.287031     -0.136351
Ti       1.94465      5.74531     15.22795        -0.485251      0.958960      0.826019
Ti      13.59792      5.89889      2.35151        -0.617145     -0.720641      2.621988
Ti      13.47073      5.77025     15.29559         0.711922     -0.660847      1.180375
Ti       1.88356      5.73648      6.75586         0.504796     -0.424174      2.219187
Ti      13.48870      5.69335      6.66730        -0.156625      0.131503      0.199214
Ti       1.94236      5.72381     11.06608        -0.182045      0.698551      0.455761
Ti      13.54232      5.87053     11.14719         0.475138     -1.203772     -0.471375
Ti       1.91594      9.58349      2.25716        -0.044460      0.318037     -0.082239
Ti       1.94572      9.64360     15.38261        -0.130560     -0.891087     -0.884798
Ti      13.51524      9.68541      2.32190        -0.725016     -0.994326      1.132924
Ti      13.57169      9.69178     15.37766        -0.870315     -1.191049      1.670544
Ti       1.86134      9.64615      6.74823         0.150215     -0.374584     -0.345031
Ti      13.47102      9.66678      6.55062         0.886019     -0.683080     -0.380319
Ti       1.86487      9.66951     11.05513        -0.368488     -0.879205     -0.109563
Ti      13.54382      9.71695     11.07509        -0.501339     -1.302256      1.866811
Ti       5.71824      1.99071      2.41115         0.537285     -0.797494     -0.193823
Ti       5.64439      1.96761     15.50624         0.909819     -0.005373      1.318813
Ti       5.72541     13.52450      2.34251        -0.706116      0.514189     -0.829642
Ti       5.73456     13.54904     15.44818         0.975059     -0.167820      1.130289
Ti       5.76648      1.98328      6.65577        -0.086720     -0.397533     -0.483827
Ti       5.74177     13.61419      6.69745         0.301258     -1.241697      0.063667
Ti       5.77452      1.85486     11.03058        -0.204034      1.338290      0.669323
Ti       5.74113     13.49485     11.00790         0.286932     -0.128884     -1.308614
Ti       5.85509      5.78442      2.29181        -0.334943      0.354431      0.407748
Ti       5.73406      5.80092     15.33656         0.637935     -0.773628      1.641446
Ti       5.81772      5.76008      6.70035         0.056809      0.250367      1.933793
Ti       5.83251      5.78636     10.93862        -0.091690     -0.507168      1.302488
Ti       5.72399      9.60650      2.33900         0.946113      0.201145     -0.072415
Ti       5.82807      9.69728     15.33281        -0.136283     -0.362146     -0.365320
Ti       5.81760      9.67560      6.73143         0.903425     -0.379863     -1.535477
Ti       5.70940      9.78124     11.02432         1.471477     -1.593035     -0.050088
Ti       9.66929      1.93141      2.41906        -0.408991      0.299946     -0.716211
Ti       9.51778      2.00350     15.40800         0.540862     -0.805572      0.996112
Ti       9.62867     13.53876      2.26568        -0.006620     -0.223904     -0.432034
Ti       9.69207     13.53695     15.51295        -0.645390      0.155577     -0.948226
Ti       9.64278      1.93040      6.59409        -0.264178     -0.477950      0.808376
Ti       9.65185     13.46804      6.70033        -0.105460      0.466710      0.926594
Ti       9.59605      1.84634     11.12467         1.299258      1.096061      0.043606
Ti       9.63224     13.57449     10.90945        -0.076864     -0.985398      1.640737
Ti       9.78338      5.80870      2.32812        -1.067905     -0.137938     -1.499850
Ti       9.68658      5.80237     15.25373        -0.651955     -0.097030      1.843079
Ti       9.63598      5.75985      6.66660         0.168041      0.118866     -0.621951
Ti       9.74610      5.80550     11.04877        -0.699812     -0.961749     -0.332565
Ti       9.64230      9.63247      2.26877        -0.419130     -0.423690      0.555499
Ti       9.60034      9.64804     15.33681         0.119052     -0.290446      0.941258
Ti       9.74854      9.66038      6.73828        -2.173222     -0.236783      0.033939
Ti       9.61607      9.66844     11.04986         0.448920      0.366720     -0.123858
O       1.98556      1.86271      0.57708        -0.123167      0.171274     -0.881162
O       1.83672      1.99394     13.58236         0.646491     -0.147589     -0.657743
O       2.09423     13.41406      0.63353        -0.932981      0.315048     -0.848212
O       1.90669     13.46374     13.52506         0.304308     -0.218047      1.017673
O      13.64978      1.88512      0.50384         0.044611     -0.127379      0.572856
O      13.56197      2.04698     13.61210         0.055788     -0.633705      0.283576
O      13.49199     13.51268      0.59334         0.334729      0.269303     -1.502749
O      13.45654     13.47556     13.71058         0.180365     -0.136112     -0.508554
O       1.90375      2.09421      4.88618        -0.157727     -0.549671     -1.043960
O       1.88063     13.37071      4.90771        -0.278303      0.231226     -1.576876
O      13.48947      1.91134      4.84513         0.284803     -0.438684     -0.632954
O      13.48445     13.50378      4.89125         0.279562     -0.026779     -0.419008
O       1.88708      1.72355      9.38078         0.010048      0.065652     -2.212290
O       1.70130     13.37587      9.33645        -0.122171      0.441203     -1.962617
O      13.48906      1.71910      9.33598         0.104833      0.052479      0.092731
O      13.62361     13.63696      9.35804        -0.080857     -0.483985     -0.311773
O       1.80357      5.83767      0.59583         0.453879     -0.265433     -0.413177
O       1.91404      5.77304     13.49099         0.271680      0.054616     -0.388641
O      13.62215      5.94281      0.68107         0.049760     -0.197679     -2.147847
O      13.66553      5.59558     13.61819        -0.575551      0.299930     -1.735324
O       2.03488      5.74189      5.08094        -0.452300      0.228842     -2.892069
O      13.45112      5.70345      4.94212         0.469577      0.029134     -0.943874
O       1.84117      5.78332      9.32110         0.257008     -0.199502     -0.397205
O      13.66950      5.95182      9.41227        -0.415087     -0.181084     -0.600101
O       1.92997      9.76282      0.52222        -0.187620     -0.571670     -0.149898
O       1.86526      9.64215     13.62531         0.229109      0.026805     -0.055482
O      13.45000      9.45890      0.63143         0.269680      0.284961     -1.751229
O      13.51427      9.68995     13.71291         0.094595      0.302340     -2.539698
O       1.94651      9.70983      4.99085        -0.272056     -0.273885     -0.366460
O      13.39052      9.68430      4.77402         0.434080      0.113644      0.550410
O       1.81199      9.65216      9.27726         0.173775      0.171067     -0.456271
O      13.40639      9.57803      9.39205         0.235062      0.117018     -2.299096
O       5.73457      2.02938      0.68602        -0.386109     -0.037597     -1.096304
O       5.67442      2.01505     13.80865         0.171685     -0.245408     -2.150281
O       5.53270     13.60957      0.59536         0.237627     -0.550194     -0.212420
O       5.78942     13.52768     13.74464        -0.099742      0.106576     -1.801262
O       5.66691      2.07478      4.92184         0.550707     -0.398210      0.139333
O       5.69119     13.52792      4.97486         0.007151      0.263480     -0.977709
O       5.82513      2.01125      9.33413        -0.041011     -0.852074     -1.281736
O       5.73334     13.36475      9.23342         0.257907      0.629861      0.190747
O       5.72723      5.86502      0.56004        -0.034210      0.034057     -0.637263
O       5.78727      5.74240     13.66118        -0.093695     -0.288072     -2.431782
O       5.85454      5.83299      4.99113        -0.201597     -0.144273     -1.433388
O       5.85742      5.64912      9.21393        -0.253356      0.412150     -0.448437
O       5.78091      9.43295      0.60673        -0.138032      0.440622     -0.372555
O       5.96267      9.63689     13.59311        -0.645066      0.263923     -0.558002
O       5.92860      9.53006      4.93895        -0.468362      0.217868      0.493463
O       5.77079      9.67042      9.27565        -0.141406      0.275081     -0.198533
O       9.61812      1.93226      0.68890         0.060886     -0.050535     -0.517516
O       9.45494      1.83486     13.70584         0.328966      0.403453     -1.100360
O       9.67759     13.55777      0.51506        -0.004792     -0.150954      0.088989
O       9.66227     13.50213     13.73712         0.056158     -0.006553      0.209195
O       9.66566      1.92292      4.88535        -0.082261     -0.128515     -1.682274
O       9.71356     13.39880      5.00542        -0.357964      0.109772     -1.337189
O       9.63205      1.86601      9.41536         0.179433      0.147419     -1.523055
O       9.66526     13.51402      9.20090        -0.022940      0.090711     -1.214059
O       9.67811      5.83265      0.53670         0.320908      0.114672      0.884162
O       9.63720      5.70271     13.55399         0.053788      0.239904     -0.904939
O       9.57116      5.77898      4.90218         0.101349     -0.034544      0.219114
O       9.71574      5.67667      9.28607         0.039815      0.132527      0.239709
O       9.68549      9.58096      0.53999        -0.077102     -0.019252     -0.436117
O       9.43548      9.75559     13.62521         0.761401     -0.035352     -1.164958
O       9.59491      9.81643      5.02666         0.370864     -0.370495     -0.983589
O       9.82272      9.66384      9.29867        -0.194028      0.073988     -0.132723
O       3.89644      1.93416      2.83765        -2.089522     -0.157864     -0.168872
O       3.78902      1.88733     15.81773        -0.445202      0.091056      0.095763
O       3.74218     13.54254      2.77285        -0.144949     -0.166317      0.606353
O       3.78994     13.44513     15.72860         0.037834      0.305391      0.014387
O       0.04848      1.82756      2.65133         0.475777      0.344266      0.673213
O       0.00317      2.02261     15.76539         0.939269     -0.275356      0.158505
O      15.43473     13.54990      2.70957        -0.496693     -0.274644      0.329917
O      15.45817     13.50782     15.76800         0.170872     -0.495247      0.248106
O       3.84227      1.86382      7.09010        -0.177815      0.325739      0.231157
O       3.78966     13.52557      7.11084        -0.925643     -0.054963     -0.319647
O      15.45174      1.99419      6.96088        -0.672692     -0.605934      0.202909
O      15.36838     13.48679      6.99516         1.694084      0.008297      0.217408
O       3.86408      1.88030     11.41626         0.219780     -0.410999      0.421124
O       3.91863     13.39729     11.30458        -1.346132      0.460701      0.665180
O       0.07699      1.95181     11.44429        -1.166166     -0.561760     -0.064204
O      15.45374     13.44168     11.59591        -0.548874     -0.099895     -0.482357
O       3.81740      5.77817      2.71028         0.196764      0.823395     -0.016098
O       3.81858      5.86730     15.71593        -0.160374     -0.212825      0.087990
O       0.03508      5.80362      2.85605        -0.199935      0.178958     -0.014455
O       0.03514      5.72208     15.69410        -0.229431      0.114768      0.274336
O       3.87960      5.62207      7.12352         0.126613      0.835516     -0.010778
O      15.45578      5.71195      7.22272        -0.490368     -0.068284     -0.650028
O       3.87834      5.82639     11.50600        -0.078991     -0.010236     -0.562980
O       0.00338      5.76763     11.49290         0.356278     -0.127210      0.044291
O       3.82499      9.60667      2.68804        -0.573469     -0.154248      0.307875
O       3.82282      9.58823     15.69695         0.570775      0.096216      0.113838
O      15.40304      9.51670      2.73309         0.764298      0.761782      0.026947
O       0.00362      9.68095     15.74739        -0.263295      0.039595      0.370419
O       3.92365      9.76251      6.97688        -1.430937     -1.126155      0.452362
O      15.43827      9.63756      6.95600         0.041420     -0.466513      0.180979
O       3.86896      9.59153     11.39126        -0.200386      0.372683      0.101974
O      15.39335      9.69324     11.49399         0.762782      0.011160     -0.150907
O       7.62523      1.86735      2.83255         0.764989      0.415487      0.233653
O       7.64864      2.01532     15.97517         0.181823     -0.271829     -0.883703
O       7.62171     13.45954      2.55191         0.850826      0.213963      0.613374
O       7.74924     13.48947     15.89004        -0.635038     -0.260873     -0.163009
O       7.75713      1.85917      7.08705        -1.003864     -0.030863     -0.078572
O       7.64260     13.57827      7.04468         0.728539     -0.135245      0.281365
O       7.78836      1.83406     11.41251        -2.534177      0.461458      0.448927
O       7.67735     13.54782     11.35762         0.428338     -0.022603     -0.110872
O       7.71797      5.78358      2.62370        -0.485695      0.047427      0.233060
O       7.73928      5.71989     15.73664        -0.223430      0.135815     -0.161882
O       7.76708      5.87726      7.17390        -0.408694     -0.672142     -0.398489
O       7.72494      5.68587     11.46679        -0.171726      0.187795     -0.434663
O       7.73276      9.63680      2.74121        -0.396647      0.043862     -0.212229
O       7.68366      9.71466     15.71994         0.220638     -0.185986      0.634534
O       7.70711      9.54412      7.19554         0.349715      0.354769     -0.129300
O       7.78146      9.73886     11.41852        -1.016382     -0.299740     -0.314144
O      11.61327      1.88433      2.62169        -0.136364      0.072806      0.425785
O      11.63158      1.91384     15.79447        -0.344710      0.024856     -0.217505
O      11.53498     13.53126      2.68392         0.722287      0.186773      0.131990
O      11.58767     13.58307     15.81202         0.744216     -0.111137      0.124761
O      11.58372      1.81496      7.03701         0.447057      0.401691      0.135628
O      11.57661     13.29409      7.03691         0.601521      0.660640      0.399704
O      11.58198      1.75351     11.40955         0.873641      0.311010      0.442885
O      11.64585     13.65585     11.37272        -0.530096     -0.470604     -0.088379
O      11.63781      5.81556      2.73824         0.451544     -0.478774     -0.058739
O      11.57020      5.72372     15.70686         0.353862      0.331978     -0.133625
O      11.56522      5.67135      7.05898         0.350771      0.446814      0.186022
O      11.60884      5.88204     11.47636         0.584043     -0.454429      0.107919
O      11.55032      9.60902      2.66794        -0.000209      0.041101      0.338309
O      11.60074      9.63678     15.69426        -0.056480      0.085178      0.182827
O      11.62265      9.64869      7.06300         0.754850      0.364586     -0.018117
O      11.55674      9.73435     11.57436         0.239475     -0.400292     -0.010726
O       1.96440      3.85399      2.69663        -0.483825     -0.056442     -0.145646
O       1.99922      3.86649     15.71822        -0.029449      0.324260      0.228492
O       1.89215      0.00999      2.72609         0.007757     -0.929533      0.309351
O       1.87428     15.45742     15.63426         0.033279     -0.487564      0.405819
O      13.59648      3.76979      2.76692         0.202116      0.870351     -0.417913
O      13.56006      3.86018     15.85436        -0.142774      0.170169      0.096371
O      13.54452      0.03239      2.67945         0.117202     -1.327180      0.500037
O      13.66958      0.02087     15.75446        -0.359462     -0.962086      0.064147
O       1.95522      3.82773      7.17808        -0.399410     -0.507115      0.094272
O       1.86621      0.02999      7.01031         0.012026     -1.231464     -0.364067
O      13.43980      3.82676      7.00824         0.416548     -0.994597      0.356229
O      13.50607     15.36333      7.03359        -0.010150      0.723976     -0.073805
O       2.03432      3.80648     11.34135        -0.312188      0.521901      0.100182
O       1.95223     15.34562     11.47569        -0.113533      0.445176     -0.201929
O      13.56087      3.82064     11.36561        -0.517337     -0.380984      0.030853
O      13.72283     15.39203     11.63458        -1.086477      0.326383     -0.930088
O       1.87988      7.71826      2.71761         0.313425      0.091467      0.334219
O       1.84756      7.64258     15.79076         0.308237      0.891807     -0.443375
O      13.38805      7.71229      2.89355         1.168992      0.131425     -0.362726
O      13.51786      7.65352     15.61323         0.291829      0.750724      0.453817
O       1.92630      7.58978      7.13170         0.343683      2.122432     -0.093711
O      13.53746      7.65537      6.95437        -0.125248      0.927098      0.190423
O       1.79561      7.76128     11.38800         0.710020     -0.225864      0.410139
O      13.56507      7.71727     11.62732        -0.282828      0.775518     -0.325643
O       1.95429     11.54626      2.66595        -1.025929     -0.314043      0.367501
O       1.89584     11.56416     15.74067        -0.088218      0.262968      0.073757
O      13.45260     11.57075      2.55447         0.616936      0.321466      0.490580
O      13.46068     11.58148     15.83473         0.548396      0.238586     -0.052270
O       1.84713     11.54058      7.18213        -0.298083      0.683321     -0.733315
O      13.64288     11.46927      6.97216        -0.554167      0.790808      0.478183
O       1.92988     11.53188     11.44276        -0.106910      0.477678      0.151606
O      13.53129     11.50251     11.49309        -0.313173      2.406449     -0.004643
O       5.65120      3.92361      2.73129         0.699991      0.349800      0.039164
O       5.65220      3.88447     15.86019        -0.053539     -0.008253      0.132921
O       5.65984     15.45824      2.72066         0.294474     -0.435530      0.850210
O       5.77283     15.40947     15.86005        -0.311543      0.703461     -0.210922
O       5.83850      3.81565      7.19009         0.141200      0.240720     -0.454370
O       5.69482      0.01508      7.02591         0.294844      0.219757      0.482403
O       5.71700      3.80849     11.36158         0.372007     -0.075643      0.587996
O       5.72284     15.45015     11.56352         0.122076     -0.543988     -0.890073
O       5.73598      7.69116      2.79232        -0.102156      0.014169      0.107704
O       5.85323      7.68162     15.57830        -0.330840      0.878278      0.818511
O       5.75871      7.62202      7.13822        -0.341223      0.896713      0.159187
O       5.83804      7.65524     11.40085        -0.136282      0.896179     -0.218920
O       5.66749     11.59643      2.68847         0.079676     -0.833655      0.174276
O       5.79184     11.59023     15.75767        -0.321508     -0.297530      0.317532
O       5.84317     11.56906      6.97148        -0.052119      0.133701      0.501374
O       5.84215     11.61289     11.54182        -0.283894     -0.359500     -0.521431
O       9.61496      3.91932      2.67821         0.159751     -1.010774      0.455854
O       9.68948      3.87477     15.84640        -0.126948     -0.286504     -0.525112
O       9.60167     15.42673      2.71547        -0.130202     -0.105340      0.528067
O       9.55302      0.01636     15.84123         0.612377      0.283110     -0.132421
O       9.59917      3.81954      6.97591         0.257425      0.045841      0.624173
O       9.68083      0.03852      7.00182        -0.047050     -1.472543      0.531047
O       9.75194      3.87312     11.56503        -0.333642     -0.812140     -0.471099
O       9.59005     15.42626     11.38427         0.346418     -0.836245      0.389979
O       9.66508      7.63457      2.74443        -0.009534      1.610144      0.204352
O       9.62718      7.76103     15.74509         0.068712     -0.628457     -0.415075
O       9.77736      7.70244      7.05401        -0.266091      0.162606      0.169092
O       9.68706      7.69438     11.39619        -0.312315      0.811680      0.160456
O       9.69525     11.56611      2.59306        -0.351456      0.090684      0.337196
O       9.67413     11.52639     15.85840         0.089290      0.611712     -0.030638
O       9.60857     11.52108      7.13298        -0.037997      0.624256      0.492051
O       9.67115     11.67330     11.47296         0.265207      0.167895     -0.216931
