  # total energy = -7880.15303941 
CRSYTAL
PRIMVEC
    15.464    0.0000000000000000    0.0000000000000000
     0.0000000000000000   15.464    0.0000000000000000
     0.0000000000000000    0.0000000000000000   17.350608
PRESSURE
-1.10029 -1.10252 -1.46537 0.042186 0.039396 0.024267
PRIMCOORD
320 1
Pb       3.99453      3.97024      4.49926        -0.418190     -0.013209     -0.373355
Pb       4.03594      3.83027     17.23098        -0.740585      0.043514      0.183506
Pb       3.73477      0.15919      4.30519         0.135477     -0.775736      0.146804
Pb       3.96279      0.04628     17.31153        -0.028282     -0.192154     -0.514729
Pb       0.25019      3.85608      4.47133        -0.159864     -0.406101     -0.560501
Pb      15.39396      3.69465     17.32573         0.604928      0.317025     -0.195124
Pb      15.39851     15.41928      4.21678         0.258650      0.181979     -0.210349
Pb      15.42026     15.43886     17.31750         0.086827      0.116046      0.012226
Pb       3.87358      3.89440      8.65754        -0.195455      0.125191     -0.589077
Pb       3.82778     15.34544      8.61502         0.301642      0.538086     -0.234294
Pb      15.34663      3.71581      8.61526         0.635568      0.198023     -0.122074
Pb      15.30435     15.36675      8.59394         0.418862      0.130700     -0.368826
Pb       3.83050      3.68172     12.85916        -0.273838      0.432097     -0.093789
Pb       4.01118     15.24501     13.04930        -0.271395      0.640374     -0.593224
Pb       0.07558      3.94352     12.93611         0.203667     -0.356297     -0.294072
Pb       0.05344      0.13932     13.00717        -0.138363      0.134770     -0.541887
Pb       3.70939      7.80922      4.30350        -0.069650      0.135341     -0.743757
Pb       3.62256      7.61011      0.06440         0.215126     -0.044937     -0.925821
Pb      15.33865      7.71924      4.28456         0.184436      0.356923     -0.200752
Pb      15.35611      7.68413     17.27715         0.418461     -0.049570     -0.400091
Pb       4.01825      7.87823      8.70366         0.107766     -0.519722     -0.541727
Pb       0.18340      7.57435      8.81810        -0.679240      0.311436     -0.728977
Pb       3.90967      7.67240     12.88257        -0.478661      0.257146     -0.120021
Pb       0.06209      7.90929     12.92572        -0.085825     -0.398322     -0.452995
Pb       3.87194     11.64961      4.31466        -0.565968      0.266180     -0.328864
Pb       3.92276     11.54469     17.33010         0.015697     -0.081873     -0.256696
Pb      15.25829     11.57816      4.32269         0.544653     -0.250380     -0.491337
Pb       0.00957     11.58159     17.27732        -0.165232      0.452317     -0.352462
Pb       3.80605     11.62920      8.65780         0.293992      0.117769     -0.301401
Pb      15.24287     11.49831      8.58803         0.426986     -0.057880     -0.116259
Pb       3.85780     11.47376     13.05259         0.118436     -0.140099     -0.821568
Pb      15.33323     11.74401     12.82012         0.185468     -0.397517      0.067027
Pb       7.63368      3.84552      4.37978         0.538348      0.161158     -0.041769
Pb       7.75476      3.93060      0.01094        -0.144115     -0.127816     -0.258403
Pb       7.78630     15.41334      4.25363        -0.117555     -0.147293     -0.141817
Pb       7.61953      0.04869      0.14311         0.059809     -0.025899     -1.192593
Pb       7.79538      3.87482      8.58897        -0.222133      0.676937     -0.154417
Pb       7.68124      0.15442      8.61008        -0.193457     -0.741492      0.091596
Pb       7.75297      3.70279     12.94090        -0.329053      0.198029      0.293064
Pb       7.91360     15.41478     13.12513        -0.170129      0.150004     -0.224229
Pb       7.68141      7.84138      4.32549        -0.042543     -0.350979     -0.411450
Pb       7.77618      7.65225      0.02003        -0.222386      0.121034     -0.273539
Pb       7.88318      7.63837      8.72877        -0.386294      0.031575     -0.635339
Pb       7.62656      7.66080     12.97988         0.587442     -0.111962     -0.024799
Pb       7.70713     11.60526      4.27740        -0.288262      0.499620     -0.687725
Pb       7.64238     11.40213     17.34074         0.012886      0.180163     -0.189293
Pb       7.56038     11.69384      8.58401        -0.279978      0.215010     -0.041953
Pb       7.76156     11.48686     12.95189        -0.365407      0.605079     -0.068049
Pb      11.44598      3.80262      4.44129         0.049283      0.020372     -0.537621
Pb      11.57073      3.99261      0.03567        -0.128913     -0.413949     -0.033959
Pb      11.66331     15.35025      4.26758        -0.276009      0.369970     -0.629387
Pb      11.57518      0.11123      0.14635        -0.050213     -0.106710     -0.076661
Pb      11.75271      3.86536      8.79981        -0.193880     -0.198651     -0.691375
Pb      11.44984     15.39303      8.52360         0.628932      0.038335      0.353364
Pb      11.71198      3.82708     13.15046        -0.138695     -0.057062     -0.851757
Pb      11.61006     15.31587     13.16866        -0.163153      0.275378     -0.715406
Pb      11.61492      7.68513      4.21535        -0.208747      0.089900     -0.122242
Pb      11.64623      7.67347     17.22970        -0.302305      0.327881     -0.049857
Pb      11.63148      7.57116      8.78343         0.038354      0.301996     -0.813680
Pb      11.44218      7.72950     13.10523        -0.182957     -0.040633     -0.634364
Pb      11.50145     11.53390      4.28079         0.196817      0.025105     -0.638471
Pb      11.51713     11.61391     17.29680        -0.006728     -0.186302      0.054665
Pb      11.33171     11.46445      8.55926         0.507832      0.140606     -0.159276
Pb      11.63332     11.65640     12.83492        -0.067446      0.054423      0.372669
Ti       1.95419      1.89946      2.20573        -0.096467      0.940641      0.836524
Ti       1.91102      1.90492     15.35601         0.298399      1.309142     -0.034490
Ti       1.89117     13.55808      2.23522         0.284501     -0.279602     -0.203442
Ti       1.94930     13.63505     15.31756        -0.177028     -0.713983      1.453321
Ti      13.52218      2.03872      2.40526        -0.164919     -0.839632      0.516545
Ti      13.44681      1.92364     15.34743         0.634332     -0.121088     -0.929595
Ti      13.49847     13.49617      2.19018        -0.858501      0.133307      0.055001
Ti      13.48473     13.61302     15.33618         1.104773     -0.444597     -0.638705
Ti       1.92741      1.82907      6.62522         0.567295      0.804856      1.414013
Ti       1.85858     13.54938      6.61995         0.290516     -0.700512     -1.672371
Ti      13.51970      1.87543      6.54738         0.176658      0.231200      0.033584
Ti      13.41754     13.44113      6.64511         0.458457     -0.253488     -0.501368
Ti       1.94810      1.87351     10.78098        -0.154541      0.685101      0.032803
Ti       1.95219     13.54530     10.78618         0.111923      0.071762     -0.417719
Ti      13.51973      1.85930     10.89311        -0.017419      0.832166      0.925275
Ti      13.51576     13.60191     10.86681        -0.156007     -0.868665     -0.413060
Ti       1.82645      5.74014      2.31187         1.105047      0.057776     -0.962900
Ti       1.84124      5.78603     15.20866         0.922317     -0.573877     -0.301578
Ti      13.53270      5.71537      2.23994        -1.185521      0.526110      0.725755
Ti      13.58495      5.74036     15.27370        -0.090531      0.122011     -1.484765
Ti       1.89647      5.82179      6.61403         0.586212     -0.372008      0.483325
Ti      13.50947      5.84017      6.74980         0.336013     -0.182209      0.445045
Ti       1.91392      5.79550     10.92328         0.147441     -0.505710      1.328997
Ti      13.48483      5.68441     11.09706         0.565412      0.743515      0.071209
Ti       1.77123      9.70613      2.17146         0.525645      0.286034      1.181534
Ti       1.82413      9.75839     15.32209         1.087334     -1.012665     -0.013963
Ti      13.43448      9.58756      2.16655        -0.169374      0.793973     -0.850719
Ti      13.51406      9.74464     15.24940         0.097051      0.299104     -0.483415
Ti       1.96175      9.72829      6.65007        -1.255751      0.049590     -0.195731
Ti      13.47523      9.54902      6.69152         0.216250      0.020643     -0.375628
Ti       1.93176      9.77436     10.86532         0.170717     -0.522635      1.174426
Ti      13.40329      9.62230     10.90834         1.762718     -0.246168     -0.024206
Ti       5.85443      1.94930      2.41576        -0.508980      0.044536      0.027215
Ti       5.82342      1.90757     15.22934         0.942623     -1.100381      0.993270
Ti       5.68915     13.61595      2.29956         0.568930     -0.950576      1.383887
Ti       5.78102     13.38648     15.23222         1.190862      0.842300      0.963169
Ti       5.83645      1.98696      6.69664        -0.978888     -0.750327      0.563874
Ti       5.74684     13.63206      6.51597         0.051031     -0.674761     -1.668051
Ti       5.82440      1.92355     10.90561        -0.168918     -0.926124      1.419137
Ti       5.79340     13.51478     11.16117         0.762199     -0.635682     -1.450408
Ti       5.74661      5.75159      2.39528         0.048285      0.409301     -0.864493
Ti       5.76000      5.74953     15.29713         0.020509      0.160708     -1.142017
Ti       5.75058      5.84091      6.64358         0.588264     -0.323635      1.471032
Ti       5.77312      5.75065     10.97018        -0.323720     -0.636767     -1.218306
Ti       5.63504      9.62838      2.32900         0.466772      0.471001     -0.489481
Ti       5.75622      9.51866     15.29723        -0.233593      0.181936      0.566307
Ti       5.75102      9.72162      6.52635         0.616371     -0.249032      0.266714
Ti       5.87818      9.56592     10.94777        -0.835304      1.827547      0.368417
Ti       9.66820      1.95105      2.37215         0.031774      0.071085      1.701839
Ti       9.70669      1.85820     15.37187        -1.578762      0.065066      0.398386
Ti       9.64062     13.53515      2.18785        -0.703498     -0.233664      0.918902
Ti       9.69041     13.48808     15.33735        -1.411435      0.331916      0.078585
Ti       9.69856      1.94503      6.76410        -0.063502      1.167832     -1.169765
Ti       9.61636     13.55872      6.55371        -1.089749     -0.617418     -0.793315
Ti       9.65316      1.94840     10.89296         0.249571      0.181374      1.681792
Ti       9.66322     13.65000     10.92274        -0.625466     -0.622549     -0.059364
Ti       9.59096      5.77090      2.42996         0.185228      0.428643     -0.136283
Ti       9.64707      5.71729     15.30141        -0.599758      0.194094     -0.749850
Ti       9.63752      5.83839      6.62625        -0.285472     -0.327193      0.468264
Ti       9.57433      5.75553     11.04773         0.554242      0.316466      1.077982
Ti       9.57930      9.67007      2.29889        -0.042814     -0.297194     -0.080254
Ti       9.65887      9.66880     15.29447        -0.449402     -0.654322     -0.506014
Ti       9.60792      9.66123      6.50517        -0.229230     -0.773382      0.752524
Ti       9.62319      9.76226     11.00390        -0.293152     -0.990967      0.675528
O       1.99335      1.98696      0.46209        -0.289647     -0.074566     -0.557979
O       1.86746      1.98202     13.59756         0.044411     -0.720858     -0.571932
O       1.95061     13.62532      0.43603        -0.318007     -0.331146      0.655525
O       1.91214     13.60939     13.61028        -0.095693      0.362664     -1.805281
O      13.47537      2.04530      0.65862        -0.303329      0.184886     -1.442795
O      13.48271      1.81608     13.55466         0.019837     -0.122224     -0.082279
O      13.39939     13.48727      0.41713         0.289157     -0.149448     -0.025497
O      13.53910     13.68110     13.49276         0.016126      0.070526      0.406930
O       1.87312      1.77379      4.88082        -0.194718      0.269886     -1.493219
O       1.95496     13.56338      4.76444        -0.747437      0.088369      0.974809
O      13.42961      1.73752      4.76125         0.223538      0.487084      0.509013
O      13.43429     13.45637      4.82577        -0.069354     -0.017074      0.566939
O       1.91091      1.91596      9.01006         0.191483     -0.185349      0.199079
O       2.06343     13.56241      8.96840        -0.079310     -0.174192      1.093911
O      13.56044      2.04466      9.15503         0.074708     -0.307404     -0.892167
O      13.44758     13.40778      9.09848        -0.031923      0.434695     -0.077256
O       1.82989      5.74018      0.52901         0.229119      0.289786      0.313059
O       1.78814      5.68552     13.40354         0.420203      0.448643      0.827480
O      13.38581      5.76175      0.49264         0.247428     -0.327405     -1.093818
O      13.58602      5.69155     13.41899        -0.396906     -0.055714      1.239995
O       1.79571      5.74306      4.83355         0.277584      0.145361     -0.699171
O      13.49974      6.11103      5.05321         0.340303     -0.273387     -1.493963
O       1.98560      5.80942      9.18417        -0.129631      0.268627     -1.539380
O      13.56741      5.79760      9.29432        -0.435238     -0.461809     -0.499687
O       1.73120      9.84616      0.41005         0.262834     -0.581340     -0.599936
O       1.96409      9.61561     13.56396        -0.203810      0.265170     -0.195793
O      13.44324      9.65468      0.33869         0.223632      0.047509      0.651272
O      13.60691      9.76027     13.44507        -0.337383     -0.453490      0.630921
O       1.96013      9.84214      4.90746         0.138131     -0.576094     -0.558958
O      13.31215      9.51884      4.89898         0.652601     -0.168855     -0.210937
O       2.00664      9.76393      9.11959         0.019209     -0.482613     -0.366276
O      13.55909      9.73743      9.12391        -0.770866     -0.358210      0.666602
O       5.85312      2.02442      0.67606         0.059417     -0.336330     -1.284656
O       5.86366      1.83796     13.52208        -0.291980      0.124952     -1.907048
O       5.79424     13.61933      0.56261        -0.126201      0.163656     -1.038231
O       5.80286     13.21396     13.46711        -0.476506      0.830321     -0.720481
O       5.88204      2.01389      4.97484        -0.202531     -0.027628     -2.228821
O       5.71545     13.50393      4.68387         0.261008      0.311301      1.341667
O       5.79765      1.81727      9.18307         0.346017      0.309346     -1.654042
O       5.76167     13.37544      9.36595         0.280032      0.097159     -0.499214
O       5.83102      5.59503      0.60500        -0.250278      0.434430     -0.168454
O       5.90421      5.72219     13.48682        -0.518674      0.372518      0.964274
O       5.77643      5.70282      4.91880        -0.069520     -0.176383     -2.076496
O       5.71848      5.70999      9.15930         0.227864      0.301291      0.328442
O       5.73059      9.61369      0.55265        -0.103281      0.202941      0.024067
O       5.77716      9.50379     13.50311        -0.067847      0.024964      0.382837
O       5.68007      9.70439      4.76051        -0.502135     -0.005923     -0.365869
O       5.91343      9.69948      9.19098        -0.225714     -0.265526     -1.139557
O       9.71923      1.85258      0.68943        -0.022894      0.336596     -3.231893
O       9.62296      1.80111     13.64381         0.267484      0.056467     -1.603372
O       9.74927     13.52342      0.43388        -0.362379     -0.163143     -1.065737
O       9.74324     13.56332     13.55890         0.387898      0.315565     -0.525940
O       9.73702      2.00735      5.01178        -0.017941     -0.027806     -0.430667
O       9.65145     13.44854      4.76895         0.058616      0.344447      0.452807
O       9.43076      2.01884      9.16863         0.738127     -0.362088     -1.233106
O       9.64301     13.52694      9.14210         0.029615      0.285710      0.083783
O       9.53526      5.72109      0.66495         0.289301     -0.059428     -1.533808
O       9.69535      5.77014     13.52191        -0.144562     -0.021865      0.126564
O       9.50846      5.79329      4.89532         0.534793      0.082246     -1.348439
O       9.53158      5.72907      9.30009         0.345525      0.543957     -0.956913
O       9.52437      9.70325      0.54045         0.133542     -0.098863     -1.040787
O       9.73759      9.51268     13.51338        -0.174886      0.427264     -0.073729
O       9.67257      9.59299      4.77062         0.147660      0.146505     -1.018909
O       9.53465      9.71521      9.27969         0.236957     -0.169147     -1.296884
O       3.86944      1.75959      2.56960        -0.330183      0.676603      0.436286
O       3.97952      1.96353     15.63399        -1.613316     -0.234646      0.456915
O       3.74751     13.75267      2.59087         0.197722     -0.139855      0.015450
O       3.87916     13.54555     15.57416        -0.295610     -0.374511      0.289827
O      15.41071      2.05222      2.64771         0.147844     -0.470966      0.297840
O      15.39812      1.86937     15.73462         0.736698     -0.297523      0.221287
O      15.34052     13.58541      2.54716         0.200509     -0.209990      0.242498
O      15.42339     13.73741     15.68150         0.290776     -0.033681      0.198841
O       3.91514      1.72132      6.91066        -0.311688     -0.284737      0.334598
O       3.84930     13.75960      6.80533         0.538600     -0.505250      0.610213
O      15.40896      1.96376      6.95355        -0.127332     -0.294793      0.069489
O      15.37297     13.38438      7.00382        -0.354137      0.205226     -0.172491
O       3.85243      1.96972     11.29642        -0.108844      0.094347      0.006439
O       3.91554     13.36104     11.39209        -1.066874      0.455367      0.459552
O       0.05013      1.84885     11.18093        -0.012253     -0.058744      0.578617
O       0.04762     13.50026     11.07128        -0.090290      0.002632      0.491308
O       3.81497      5.65408      2.63297        -0.058597      0.721351      0.660916
O       3.81264      5.89034     15.59147         0.423242     -0.754174      0.363595
O      15.41496      5.84509      2.61178        -0.626105     -0.054915      0.607076
O      15.43726      5.82976     15.64490        -0.800706     -0.303313      0.205450
O       3.89303      5.71292      6.93400        -1.208694      0.138678      0.316291
O       0.07819      5.60315      7.02977        -0.456211      0.470993      0.355441
O       3.86189      5.65320     11.23674         0.198648      0.321606      0.768041
O       0.02298      5.76492     11.35828        -0.422854      0.187177     -0.240036
O       3.70438      9.68751      2.59382         0.288868     -0.231015      0.218310
O       3.84703      9.76254     15.73397        -0.615279     -0.480666     -0.068027
O      15.35197      9.65905      2.63909         0.101473     -0.025817      0.157986
O      15.40308      9.49310     15.61618        -0.111740      0.385743      0.248899
O       3.87570      9.68378      7.05065         0.210062     -0.285964      0.196322
O       0.02622      9.69184      6.90605        -0.287262      0.414110      0.396494
O       3.97324      9.67384     11.32034        -1.227092     -0.087059      0.060701
O      15.45578      9.78193     11.16448         0.587276     -0.405709      0.508260
O       7.77116      1.93192      2.68528        -0.379798      0.450896      0.742764
O       7.71517      1.76340     15.63527         0.223121      0.296303      0.890557
O       7.67745     13.45076      2.60916         0.273692      0.182698      0.257921
O       7.73814     13.47597     15.40179         0.180283      0.054178      0.880818
O       7.76681      2.00038      6.95459         0.482003      0.015817      0.867660
O       7.73087     13.45020      6.83084        -0.085297      0.096959      0.520077
O       7.73857      1.72769     11.36900        -0.010923      0.427011      0.026285
O       7.74787     13.50786     11.39677         0.597503      0.679321      0.244691
O       7.67251      5.73774      2.66127        -0.124741      0.088502      0.727094
O       7.70625      5.78267     15.74258        -0.125640      0.008095      0.123585
O       7.75238      5.85257      7.00062        -0.858009     -0.653211      0.642226
O       7.65763      5.77104     11.33935         0.596032      0.479716      0.282513
O       7.58443      9.67450      2.58320         0.395822      0.365621      0.784457
O       7.65758      9.65434     15.67718         0.469201     -0.163819      0.118552
O       7.65586      9.63660      6.62299         0.375184      0.123085      0.916335
O       7.73540      9.47037     11.35142         0.924970      0.349630      0.479785
O      11.47877      1.99927      2.80127         1.609784     -0.311450      0.414409
O      11.55783      1.99149     15.65843         0.689390      0.208577      0.652905
O      11.46992     13.54354      2.52335         1.750131     -0.361926      0.706748
O      11.64970     13.39868     15.59414        -0.338714      0.093524      0.265821
O      11.71156      1.94822      7.06766        -1.377500     -0.298594      0.398946
O      11.48448     13.62240      6.97256         0.879303     -0.621940      0.159945
O      11.59923      1.97850     11.10263        -0.691418      0.001864      0.324354
O      11.63333     13.58460     11.27914        -0.424514     -0.084568      0.326239
O      11.55020      5.76514      2.64913         0.658594      0.678241      0.465242
O      11.55076      5.66498     15.59246         0.323014      0.006707      0.486522
O      11.58831      5.92957      6.98567         0.475390      0.038019      0.836873
O      11.56944      5.58465     11.34838         0.117914      0.503587      0.113892
O      11.52212      9.64008      2.50935         0.409181     -0.205287      0.461713
O      11.58991      9.75950     15.62662         0.220184     -0.502261      0.102088
O      11.55033      9.50419      6.97739        -0.618583     -0.034192      0.672374
O      11.57956      9.71164     11.33223        -0.400534     -0.313741     -0.105997
O       1.84456      3.86924      2.64823         0.027057     -0.656130      0.611873
O       1.81526      3.85110     15.58669         0.291319      0.094267      0.530025
O       1.75013      0.07422      2.61108        -0.066754     -0.723861      0.131996
O       2.06614      0.05715     15.76753        -0.478680     -0.207912     -0.144485
O      13.44415      3.91212      2.68593         0.085553      0.248680      0.445574
O      13.58048      3.79518     15.62218        -0.297030      1.233397      0.464784
O      13.35885      0.03007      2.47443         0.231850     -0.904660      0.722833
O      13.44482      0.09838     15.78707        -0.368684     -1.496210      0.210571
O       2.12162      3.69762      6.82540        -0.550818      1.204587      0.339299
O       1.78276     15.39834      6.93395        -0.299257      0.130455      0.696782
O      13.52556      3.85275      7.00930        -0.354422      0.270133     -0.026249
O      13.52775     15.35805      6.94960        -0.093589      0.525218      0.281732
O       1.87230      3.88103     11.18900         0.283538     -0.940669      0.437796
O       2.00959     15.44111     11.05836         0.198708     -0.644240      0.770719
O      13.52605      3.75068     11.39257         0.312402      0.591923      0.117837
O      13.61149      0.00146     11.17361        -0.191195     -0.563686      0.333397
O       1.89037      7.79398      2.55070         0.043218     -0.538324      0.372500
O       1.84470      7.65514     15.67338         0.322378      0.759137      0.446708
O      13.47496      7.74140      2.47303         0.012185     -0.701153      0.767059
O      13.43216      7.60352     15.67818        -0.124649      0.694414     -0.157619
O       1.87842      7.70351      6.84519         0.342252     -0.117025      0.611720
O      13.72212      7.73423      7.24567        -0.406338     -0.847773      0.280992
O       2.01886      7.74954     11.36901        -0.446069      0.449390     -0.439573
O      13.64224      7.68354     11.28410        -0.898643      0.867651      0.035891
O       1.79525     11.62232      2.62775         0.080328      0.594456     -0.231795
O       1.78952     11.63510     15.57113        -0.145628     -0.004433      0.427762
O      13.45177     11.50554      2.66103        -0.058441      1.024766     -0.049414
O      13.73800     11.64100     15.45751        -0.360185     -0.306287      0.555523
O       2.00166     11.65822      6.99632         0.246100     -0.209392      0.180328
O      13.37406     11.44592      6.98745         0.029189      1.559160      0.030930
O       2.01526     11.64128     11.21985        -0.166131     -0.362873      0.271359
O      13.47100     11.60500     11.33577         0.244545      0.392780      0.010364
O       5.79875      3.86662      2.77584        -0.199473     -0.666290      0.705733
O       5.77080      3.80081     15.62582         0.504101      1.297247      0.260282
O       5.95442      0.05402      2.76146        -0.438210     -0.302598     -0.217579
O       5.81760     15.36809     15.59763        -0.392471      0.037648      0.429542
O       5.74094      3.82032      6.99317         0.178921      0.612484      0.513569
O       6.03661     15.44355      6.96519        -0.498774     -0.210145      0.206043
O       5.90464      3.79443     11.28838        -0.229472      0.016194      0.282014
O       5.61953      0.00223     11.23152         0.357920     -0.916478      0.943554
O       5.72027      7.71273      2.76407        -0.375498     -0.176184      0.024688
O       5.74811      7.69157     15.77066         0.112164     -0.348114     -0.180479
O       5.72316      7.67207      6.89731        -0.045899      1.626862      0.525416
O       5.76574      7.66960     11.20102        -0.171133     -0.433682      0.621957
O       5.54839     11.66483      2.59726         0.368723     -0.379238      0.035007
O       5.77640     11.55000     15.78252        -0.056421     -0.049885     -0.048416
O       5.77564     11.64736      6.90376        -0.294082     -0.131033      0.339607
O       5.97881     11.45917     11.41359        -0.242514      0.277340      0.157416
O       9.76271      3.89972      2.73824        -0.901364     -0.382810      0.497232
O       9.53413      3.77799     15.62160         0.266176      1.101143      0.616524
O       9.63430     15.44659      2.57539        -0.248059     -0.301032      0.629626
O       9.76825     15.43252     15.69661         0.116664     -0.721549      0.442357
O       9.73415      3.95392      7.05770         0.039206     -0.938109      0.383866
O       9.62997      0.02337      6.97426         0.002705      0.014285      0.370962
O       9.47283      3.86124     11.37004         0.551982     -1.211441     -0.011758
O       9.74750      0.03795     11.39354        -0.146983     -0.305165     -0.197819
O       9.51487      7.75604      2.62789         0.151835     -0.260849      0.492668
O       9.62923      7.70893     15.59982         0.384755     -0.322108      0.698962
O       9.54327      7.70235      7.02925         0.338570      1.157424      0.519959
O       9.69845      7.70400     11.41550         0.294979     -0.232980     -0.143080
O       9.66137     11.56826      2.60822        -0.249451      0.205357      0.498010
O       9.60881     11.52782     15.55830         0.205748      0.485629      0.720557
O       9.64645     11.56887      6.81798         0.452392     -0.302001      0.600980
O       9.60315     11.68150     11.27135         0.460145     -0.846169      0.384852
