  # total energy = -7845.64360235 
CRSYTAL
PRIMVEC
    15.6080000000000005    0.0000000000000000    0.0000000000000000
     0.0000000000000000   15.6080000000000005    0.0000000000000000
     0.0000000000000000    0.0000000000000000   16.6239999999999988
PRESSURE
1.66556 0.241476 -3.65667 -0.103871 -0.004513 0.002314
PRIMCOORD
320 1
Pb       4.01703      4.12635      4.24165        -1.134395     -1.459389     -0.320872
Pb       3.93101      4.07448      0.14879        -0.078546     -0.171501      0.126926
Pb       4.03207      0.13114      4.41992         0.679991      0.306166     -0.064322
Pb       3.75357     15.43815      0.06985        -0.555723      1.428419     -0.364131
Pb       0.17138      4.02708      4.28541         0.810539     -1.064942     -0.720657
Pb       0.03744      3.81127      0.13060         0.733751     -0.058812      0.056794
Pb      15.43960     15.53165      4.48494         0.524160      0.089829     -0.315037
Pb       0.31254     15.45490     16.61768        -0.501843      0.443149      0.245212
Pb       3.88283      3.65658      8.28477         0.778685      1.543001     -0.069552
Pb       3.80563      0.01361      8.40827         1.151414     -0.499788     -0.462074
Pb      15.39797      4.05292      8.14594        -0.209008     -0.217895      0.577469
Pb      15.27317      0.08123      8.03288         0.268468     -0.007051     -0.272620
Pb       4.05158      3.90420     12.38597        -0.698533     -0.136219      0.202734
Pb       3.80639      0.05846     12.42900        -0.162883     -0.023183     -0.195952
Pb       0.04791      3.66617     12.67371         0.099053     -0.086519     -0.300833
Pb      15.58861     15.60592     12.27184        -0.407621     -0.002426     -0.418416
Pb       3.71087      7.94674      4.25377        -0.345689     -0.137358      0.233322
Pb       3.60356      8.07395      0.13057         1.850780     -1.610361      0.112970
Pb      15.55937      7.88213      4.11431         0.564055      0.050197      0.256706
Pb       0.14453      7.95739      0.13051        -0.928151     -0.628217     -0.012118
Pb       3.84770      7.92041      8.67795        -0.916597     -1.706952     -0.484261
Pb       0.02786      7.56355      8.48747         0.237175     -0.388106      1.201237
Pb       3.82279      7.68616     12.75545        -0.243433     -0.178745      0.374724
Pb       0.21995      7.42871     12.78890         0.073527      0.710112      0.064185
Pb       3.80814     11.87375      4.43365        -0.818437     -0.339453     -0.177383
Pb       3.64308     11.82600      0.02999         0.017422     -0.662172      1.060952
Pb      15.52004     11.61723      4.67795         1.097589      1.049989     -1.466114
Pb       0.03504     11.85963     16.58479        -0.245589     -0.171592      0.078300
Pb       3.81413     11.67920      8.64598         0.709933      0.507448      0.349133
Pb      15.46341     11.23062      8.19571         0.490625      1.530090      1.765840
Pb       3.66164     11.84282     12.55982         1.093265      0.363033     -0.149582
Pb      15.41188     11.76476     12.39840        -0.333621      0.501810      0.241616
Pb       7.72413      4.15448      4.14993         0.154661     -0.478432      0.456644
Pb       7.83554      3.66112     16.59334        -0.167284      1.295550      0.132431
Pb       7.83005      0.09124      4.03678        -1.350286     -0.519849      0.524945
Pb       7.68793      0.15737      0.03704         0.238990     -0.006538      0.232004
Pb       7.81196      3.95142      8.57644         0.494471      0.989253     -0.555387
Pb       7.76227      0.16992      8.30654        -0.327636     -1.278392      0.199203
Pb       7.97762      3.81675     12.61269         0.065467      0.234320      0.330332
Pb       7.69414     15.41662     12.74742         0.613232     -0.089412     -0.589449
Pb       7.71649      7.71392      3.98426         0.641510      0.092067     -0.675729
Pb       7.78821      7.93789     16.45973        -0.710557     -0.541541      0.872567
Pb       7.89932      7.77737      8.33436        -0.221455     -0.564224     -0.687553
Pb       7.59114      7.69490     12.78052        -0.026611      0.612676     -1.012893
Pb       7.59334     11.91960      4.23457         0.088513      0.899485      0.303776
Pb       7.63381     11.41207     16.60970        -0.230172     -0.136952      0.177553
Pb       7.56752     11.84114      8.49774        -0.476372     -0.099474     -0.117764
Pb       8.12431     11.94119     12.81128        -1.899241     -0.041860     -1.526584
Pb      11.99788      3.93601      4.03845        -0.862359     -0.577800     -0.642849
Pb      12.01036      3.79654      0.03234        -0.484021     -0.314711      0.837041
Pb      11.90495     15.39348      4.14332        -0.794928      0.671395      0.757575
Pb      12.19998     15.52639      0.32892        -0.634431      0.516427     -0.477708
Pb      11.61684      4.06752      8.42011        -0.289565     -0.033434      0.549060
Pb      11.46566      0.22640      8.11582        -0.038838     -0.171482      0.400120
Pb      11.79807      3.78040     12.73372        -0.624617      0.272773     -1.207527
Pb      11.69804     15.48620     12.11745        -0.390777     -0.549967      0.785732
Pb      11.56235      7.60980      4.18866        -0.336738      0.964423     -0.371091
Pb      12.01452      7.72480     16.58345        -0.354148      0.341497      0.610253
Pb      11.69717      7.71310      8.48473         0.172516     -0.551554      0.699767
Pb      11.64120      7.69529     12.50315         0.233850      0.394870     -0.361119
Pb      11.60304     11.63308      4.31967        -0.384880      0.537124     -0.250741
Pb      11.77410     11.62176      0.10889         0.280479     -0.216245     -0.767261
Pb      11.61601     11.19087      8.18183        -0.606555      0.338082      0.438124
Pb      11.38795     11.49297     12.16133         1.507619      0.948129      1.409717
Ti       2.01183      1.94641      2.43201         0.201764      0.247910     -0.798255
Ti       1.95381      1.92306     14.66776        -0.125669      0.851856      0.819710
Ti       1.94525     13.66356      2.39185        -1.912864     -0.485804      1.927663
Ti       1.78676     13.66634     14.37464         0.600876      0.419606      0.076852
Ti      13.90410      1.96116      2.05178        -1.494827      0.663507      1.658247
Ti      13.55794      1.88793     14.44029         3.917323     -1.588415     -1.108684
Ti      13.84571     13.57734      2.04070        -0.338595     -0.491143      0.340471
Ti      13.53401     13.61004     14.39927        -0.596473     -0.033574     -1.309417
Ti       2.01337      2.03297      6.25257         0.556825     -0.290044     -1.868241
Ti       1.95257     13.76613      6.52086        -0.718532     -0.241814     -0.880050
Ti      13.45390      2.01393      6.05337         2.672440     -0.468786     -0.384770
Ti      13.38804     13.47158      6.39845         0.490375      1.766263     -0.351996
Ti       1.94830      1.99641     10.06020        -0.486913      0.487442      1.589120
Ti       1.86148     13.63157     10.32310        -0.926496      0.910071      0.287429
Ti      13.64262      1.89356     10.25109        -0.544455      2.138720      1.013306
Ti      13.44586     13.58932     10.05047         1.194098     -0.187745      1.511288
Ti       1.91561      5.95067      2.39395         2.687949      0.071908     -1.606507
Ti       1.91716      5.80846     14.99129         0.534789     -0.367059     -1.313021
Ti      13.71591      5.95982      2.34899         3.176242     -1.755222     -2.238906
Ti      13.62059      5.82000     14.65496         2.465811      0.297015      0.976851
Ti       1.95189      5.85744      6.46392         1.671847      1.135078      0.546540
Ti      13.72282      5.70991      6.15599        -1.150379      1.394085      1.385789
Ti       2.06827      5.83966     10.61991        -0.435667      0.371738     -2.033986
Ti      13.69143      5.78578     10.76482         0.518017     -0.408634     -1.847286
Ti       1.79819      9.93248      2.17400         3.746121      0.344266      0.170158
Ti       1.90957      9.83533     14.79561        -0.725625     -0.949371     -2.131622
Ti      13.56986      9.75098      2.19630        -0.093786     -0.120424     -0.281787
Ti      13.64783      9.74949     14.60687        -0.089196      0.360985     -0.989650
Ti       1.94959      9.81998      6.52587         1.434557     -0.956497     -1.248019
Ti      13.66408      9.57544      6.35320        -1.105051     -1.797344     -1.138067
Ti       1.94367      9.84778     10.85646        -2.883868     -2.794823      0.240915
Ti      13.68463      9.75511     10.63853        -0.611333     -2.013966      0.866638
Ti       5.82377      1.98207      2.05392        -0.956901     -0.387111      0.094658
Ti       5.80246      1.68774     14.62565        -0.898087      2.946273     -0.282237
Ti       5.59139     13.75209      2.18790         2.195849      0.262103      1.527486
Ti       5.73188     13.41657     14.81305        -0.677751      1.126785     -1.616435
Ti       5.98418      2.06650      6.38893        -3.253166     -1.373763     -1.894960
Ti       5.65199     13.59029      6.45674         1.805685      2.534511     -0.410423
Ti       5.83163      1.88783     10.41013         0.799269      0.014021     -0.635029
Ti       5.86584     13.73087     10.52349        -0.336741     -1.883271      0.226549
Ti       5.67590      6.00174      2.02047        -0.423357     -1.273926     -1.188379
Ti       5.78896      5.68299     14.47752        -0.345842     -0.511819      1.294160
Ti       5.77334      5.93314      6.10306         1.107815     -0.436127      0.530685
Ti       6.00354      5.77349     10.58338        -0.764389      0.168214     -1.584760
Ti       5.75614      9.85317      2.31908        -1.234569     -0.947198     -2.735128
Ti       5.67971      9.65719     14.50762         0.724277     -1.158371     -0.444725
Ti       5.79420      9.69225      6.13954         0.193851      0.152519      0.377111
Ti       5.60456      9.54926     10.50951         2.840710      1.252022      0.744508
Ti       9.80298      2.02108      2.33067         1.545336      0.390598     -0.021115
Ti       9.83042      1.96107     14.73313        -0.741755      0.257832      0.233591
Ti       9.74349     13.68402      2.07570        -1.403755      0.057926      0.207767
Ti       9.67973     13.70878     14.83907         2.348952      0.965046     -1.530798
Ti       9.71630      2.05193      6.26520        -0.411783      1.499598     -0.066884
Ti       9.62400     13.60482      6.26806        -0.835147      0.053252     -0.062920
Ti       9.71398      1.79731     10.57678         0.739006      0.563349      1.000821
Ti       9.74716     13.43899     10.14652        -4.011089      1.384861      0.182277
Ti       9.58671      5.70216      1.99600        -1.386580      3.053860     -1.818251
Ti       9.80412      6.01650     14.51373        -1.481260     -2.946656     -0.423136
Ti       9.89802      5.87192      6.13146        -2.267948     -2.215485      0.675708
Ti       9.81741      5.79077     10.57193        -0.219561     -1.044268     -0.109850
Ti       9.71912      9.85991      2.06179        -0.324429     -2.264771      0.478544
Ti       9.74440      9.69748     14.45478         0.581545     -0.309648      0.327980
Ti       9.74795      9.53305      6.00388        -1.555174      1.423151      0.336406
Ti       9.54031      9.57445     10.52447        -1.133954     -0.530189     -0.429280
O       1.78461      1.49201      0.12601         0.696662      1.004276      0.644373
O       2.23404      2.20290     12.83940        -0.891728     -0.734894      0.010043
O       1.92056     13.49939     16.49498        -0.138133      0.045532      0.243934
O       1.80119     13.62550     12.39666         1.056915      0.612133      1.185055
O      13.75325      2.03703      0.24494        -0.963432     -0.270115     -2.730200
O      13.74681      2.02244     12.50289        -0.546309     -0.677666      1.464758
O      13.57648     13.59835      0.20742         0.593689     -0.254590      0.403530
O      13.42994     13.43192     12.56879         0.672385      0.861717     -0.650068
O       2.09596      2.02785      4.35657        -0.564009     -0.521095     -1.740946
O       1.90987     13.30724      4.19710         0.041293      1.294468      0.341454
O      13.57858      1.85620      4.11987         0.281486     -0.012455      0.745841
O      13.57528     13.68323      4.58726         0.164211      0.147862     -1.590417
O       2.10244      1.96032      8.17114        -0.894425      0.125783      3.938358
O       1.90946     13.75386      8.36681         0.233079     -0.283489      0.541619
O      13.62283      2.15843      8.25715        -0.041621     -0.591457      1.334629
O      13.52304     13.94922      8.28143         0.605875     -0.328088      1.093167
O       1.82330      6.17643      0.06230        -0.204134     -1.056876      1.374894
O       2.09177      5.77212     12.37385        -0.660194      0.137113      1.999957
O      13.78024      6.23911      0.11947        -0.404474     -1.951869     -1.256659
O      13.77326      5.76976     12.56922        -0.322060      0.179183      0.119668
O       2.22227      6.09274      4.21362        -0.637004     -1.056097      0.157389
O      14.05021      5.67557      4.25241        -1.012070      1.476751     -0.015119
O       2.05490      5.95919      8.40426        -0.252617     -0.416570     -1.613644
O      13.52538      5.63927      8.25571         1.322799     -0.290991     -1.184922
O       1.97709      9.75146      0.03105        -0.909418      1.176853     -1.366958
O       1.79478      9.43506     12.65819         0.605658      1.407522     -1.281533
O      13.30981      9.72688      0.15914         0.912654     -0.559207     -1.506945
O      13.61525      9.73364     12.53628         0.237188      0.459109      0.264592
O       1.80797      9.93878      3.97548         0.023845     -0.571586      1.170233
O      13.75345      9.67466      4.15772         0.364377      0.034416     -0.101178
O       1.95035      9.76112      8.34169        -0.052093      0.343966     -0.066440
O      13.78081      9.58080      8.17605        -0.382390      0.557508      0.411997
O       5.78544      1.65158      0.14923         0.004733      0.467767      1.278370
O       6.03593      1.91537     12.69903        -0.761588     -0.545120      0.159559
O       5.56502     13.50315      0.17569         0.629797      0.581193     -0.486811
O       5.88359     13.62496     12.70011         0.053128      0.120002     -0.276311
O       5.90373      1.77803      4.51224         0.237849      0.555497     -0.401459
O       6.02005     13.66116      4.21245        -1.417472     -0.612312      0.044472
O       5.71920      1.53223      8.45412         0.809413      1.793269      0.998123
O       5.80380     13.76085      8.30585         0.751821     -1.082591      1.616399
O       5.69172      5.96255      0.17827         1.041220     -0.361413     -0.227012
O       5.87321      5.48793     12.60458        -0.763651      0.780374     -0.058354
O       5.55341      5.70183      4.17105         1.933611      1.225397      1.628387
O       6.08502      5.72900      8.63387         0.281501      1.022082      0.868765
O       6.05554      9.48580      0.20839         0.146256      1.112191     -0.044773
O       5.76180      9.65854     12.69964        -0.579135      0.712574      0.052228
O       5.35423      9.80943      4.30273         2.513843     -0.150543     -0.662663
O       5.61313      9.44359      8.60239         0.332684      1.004220      0.520035
O       9.94236      2.15829     16.57447         0.180470      0.092726     -0.007871
O       9.57829      1.88585     12.55304         0.506983     -0.463281     -0.020852
O       9.86356     13.41634      0.24579        -0.234950      0.911632      0.300619
O       9.69065     13.64902     12.62986        -0.203910     -0.079100      1.538498
O       9.65121      2.14443      4.37201        -0.055807     -0.993631     -1.243787
O       9.95100     13.49703      4.47877         0.062141      0.806889     -1.858878
O      10.04685      2.21922      8.30186        -0.786929     -1.407204     -0.357080
O       9.50086     13.51365      8.32146         0.630801     -0.924655      0.669544
O       9.47901      5.48142      0.08212         1.024130      1.110725      1.187937
O       9.91939      6.03237     12.55712         0.779769      0.410773      0.974227
O       9.86556      5.73834      4.36706        -0.581851      0.914545     -1.510377
O       9.66107      5.83601      8.65276        -0.009373     -0.398664     -0.485925
O       9.50921      9.94647      0.24965         0.736401     -0.571399      0.198294
O       9.82233      9.47412     12.57782        -0.105808      0.279072      0.554927
O       9.66074      9.31860      4.22415         0.537151      0.820284      0.752676
O       9.86322      9.63118      8.68096        -0.455509      0.367415     -0.389079
O       3.84850      1.57684      2.42952         0.453436      0.644096     -1.116342
O       3.86353      1.60863     14.81607         1.477850      0.387662     -0.259285
O       3.78408     13.90736      2.24861         1.791289      0.097262     -0.290348
O       3.82083     13.72574     14.48258         1.273689     -0.497458      0.448744
O       0.01431      2.11809      2.18400         2.248262      0.442015      0.725614
O      15.52492      2.19911     14.54945         0.843616     -0.603885      0.210231
O      15.58745     13.07542      2.47150        -1.335243      1.242893     -1.489029
O       0.02441     13.52806     14.57870        -1.402528      0.156199      0.038220
O       3.90815      2.23684      6.41694         1.179927     -0.732983      0.166977
O       3.81306     13.34958      6.32838         0.913816      0.446602      0.059016
O       0.17366      2.01441      6.29080        -1.065160     -1.638804      0.465017
O       0.06052     13.99075      6.43018        -0.555164     -0.311725     -0.295889
O       3.96252      1.83855     10.37391        -1.176371      0.256310      0.392651
O       3.97341     13.73235     10.24602        -0.379937      0.252923      0.632645
O       0.01310      1.92019     10.69837         1.491204     -0.279973     -1.458928
O       0.02047     13.45043     10.52465        -0.702241      0.990070     -0.590000
O       3.82319      5.68889      2.01679        -0.191834      0.283040      0.264095
O       3.89477      5.57748     14.68685         0.198007      0.493736     -0.692740
O       0.23370      5.69748      2.51234        -2.857497      0.011554     -0.734678
O       0.08111      5.65400     14.56203        -0.797165      0.183337     -0.468923
O       3.98290      5.95040      6.26322        -0.700251     -0.814512      0.761965
O       0.09837      5.86770      6.46758        -1.194811     -0.097677     -0.162340
O       3.90968      5.89913     10.56397         1.104860      0.207781     -0.340729
O       0.08337      5.96239     10.36618        -1.549736     -0.615547     -0.082046
O       3.81518      9.66611      1.64391         1.901018      1.318935      2.416118
O       3.83065      9.58509     14.74706         0.143083      0.708572     -0.388526
O       0.11800     10.05658      1.86579        -3.688889     -0.012717     -0.264132
O       0.04123      9.78312     14.73409        -1.811697      0.086272      0.366740
O       3.78470      9.93419      6.12720         0.283730     -0.291734      1.304035
O       0.04559      9.90871      6.28570        -1.210444     -1.213693     -0.187405
O       3.72970      9.86359     10.74806         1.892979     -0.906222     -0.544850
O      15.48436     10.04726     10.59964         2.073919      0.116476     -0.841404
O       7.81199      2.07843      2.06649         0.277897     -0.242322      0.184618
O       7.84634      1.97314     15.10069        -0.107972     -0.835420     -1.451749
O       7.76589     13.66762      2.33115         2.914554     -0.125548     -0.734943
O       7.85992     13.59614     14.71689        -1.429810      0.040478      0.663223
O       7.66462      1.54644      6.50700         3.965633      1.257795     -0.107766
O       7.79103     13.70577      6.17641         0.682923     -0.229488      0.346962
O       7.92882      1.92454     10.32256        -2.334804      0.368509     -0.508167
O       7.85663     13.55764     10.42564        -2.089137     -0.006540      0.079976
O       7.63776      5.73483      2.37204         1.226446     -0.088602     -0.072736
O       7.89493      5.89050     14.21480        -0.106203      0.233963      1.523552
O       7.85138      5.90574      6.29935        -0.786491      0.747511     -0.450473
O       7.88014      5.71834     10.96195        -0.746138      0.571593     -1.302888
O       7.79019      9.46930      2.24938        -0.752997      1.210504      0.678011
O       7.77813      9.41873     14.62751         0.209058      0.384623      0.176396
O       7.77349      9.42993      6.26297         0.036820      0.178687      0.041815
O       7.63499      9.36988     10.64815         1.338173      0.840919     -0.934081
O      11.72792      2.12128      2.11049        -0.828769     -0.673880      0.300006
O      11.82385      2.16026     14.44628        -3.401795     -0.939552      0.796487
O      11.91375     13.90648      2.51249        -0.406591     -0.752980     -1.814609
O      11.73895     13.70234     14.68264        -2.235190     -0.312259      0.961627
O      11.74585      2.32496      6.10753        -1.613754     -0.313258      0.654285
O      11.61091     13.54033      6.59939         0.150823     -0.241357     -0.243930
O      11.63502      1.98445     10.61924         2.024843     -1.038987     -0.502068
O      11.45029     13.52544     10.47303         4.376138      0.128315     -0.083717
O      12.03687      6.22797      2.44191        -2.978444     -0.806739     -0.530921
O      11.83825      5.97843     14.51130        -0.951758     -0.127955      0.376080
O      11.78794      5.57754      6.02637         1.190948     -0.562320      0.851774
O      11.84537      5.80957     10.40489         0.027920     -0.049354      0.541243
O      11.70080      9.45872      2.29169        -0.410405      0.165353     -0.095952
O      11.65060      9.81013     14.56356         0.422611     -0.433568      0.488625
O      11.75981      9.76656      6.30398        -0.223077      0.066484     -0.094527
O      11.83816      9.97033     10.48682        -1.558362     -0.093005     -0.490937
O       2.01962      3.82006      1.93290         0.176698     -0.666359      0.494942
O       1.95920      3.90573     15.27196         0.160626     -1.792197     -0.715962
O       1.70484     15.50602      2.47516        -0.549832      0.418412     -0.684563
O       1.78713     15.60021     14.75643        -0.102440     -1.042715     -1.720028
O      13.69882      3.99562      2.08787        -0.414190      0.833824      0.132885
O      13.52801      3.87675     14.70666         0.373915      1.214639      0.096147
O      14.17673      0.09540      1.97035        -1.735432     -3.160024      0.737839
O      13.62336     15.52511     14.53244         0.318343      1.831249      0.520637
O       2.05079      3.97979      6.07656        -0.536175      1.155841      1.086424
O       2.35280      0.03729      6.20834        -1.076878     -0.731052      0.507361
O      14.19370      3.80385      5.87751        -2.181308      0.591197      1.905466
O      13.54931      0.09519      6.22953         0.067050      0.668560      0.826483
O       2.21156      3.90704     10.47010        -0.941180     -2.584266     -1.018274
O       2.05974     15.54695     10.50143        -0.609560      2.074956      0.074922
O      13.69251      3.77506     10.65420         0.163499      0.666160     -1.023379
O      13.71730     15.51661     10.53252        -0.477975      0.675918     -0.121616
O       1.86281      7.82547      1.88588        -0.235315      0.691806      1.762376
O       2.00428      7.66224     14.51511        -0.480299      1.052317     -0.016532
O      14.24866      7.73273      1.99422        -0.518787      1.980382      1.696578
O      13.87833      7.75750     14.54011        -0.851965      1.197875      0.090400
O       1.88477      7.78489      6.12200         0.292590      1.567245      0.769521
O      13.38907      7.61395      6.21239         1.584819      1.417135     -0.094917
O       1.78046      7.93845     10.39073         0.749332      0.479558      0.027700
O      13.58998      7.86981     10.30747         0.438813     -0.316976      0.516455
O       2.32925     11.83808      2.09209        -0.195119     -1.587126     -1.190356
O       1.77483     11.61561     14.16611         1.386682      0.314925      1.297314
O      13.33448     11.56620      1.91404         0.543776      1.253875      1.190947
O      13.53646     11.73982     14.49726         0.946399     -2.447906      1.502498
O       1.86605     11.82542      6.26319        -0.923841     -1.517683      0.694366
O      13.62379     11.68141      6.35566         0.423661     -1.356889      0.510183
O       2.18822     11.80912     10.54152        -0.427750     -1.427015     -0.070661
O      13.64830     11.82167     10.14869        -0.579421     -0.524020     -0.173949
O       5.54883      3.78226      2.23870         0.866629     -0.732354     -0.085999
O       5.93451      3.84841     14.75386         0.173874     -0.702158      0.388667
O       5.92940      0.02798      2.51588         0.288985     -0.780349     -1.378875
O       6.04272     15.54120     14.79807         0.188506     -1.713937     -0.129832
O       5.94129      3.88412      6.34145         0.425419      1.196785      0.484898
O       5.71576     15.46711      6.46149        -0.902688     -0.005553     -0.695014
O       5.81499      3.86220     10.41654         0.131154     -1.399463      0.367878
O       5.84552     15.59792     10.64710         0.510722      0.335205      0.464090
O       5.52616      7.73500      2.38766         0.961450      1.835212      0.589378
O       5.78036      7.66086     14.47585        -0.033281      0.030831      0.065549
O       5.69177      7.80806      6.37474         0.176156      0.818846     -0.427263
O       5.62856      7.74429     10.91841         0.047395     -0.283449     -0.999105
O       5.76591     11.73175      2.32918         0.021048     -0.958958     -0.412225
O       5.71010     11.56258     14.80045         0.625911      1.131117      0.073217
O       6.09913     11.73247      6.41009        -0.359421     -2.429836     -0.071277
O       5.59783     11.76273     10.40892         0.862158     -0.860990     -0.340442
O       9.89341      3.99082      2.34472         0.129650     -1.542913      0.372914
O       9.74164      4.06524     14.41848         0.521281     -1.940602      0.134750
O       9.83077      0.16687      2.15589        -0.331116     -1.786294      0.229563
O       9.69481      0.02957     14.72509         0.038415     -0.774920      0.409627
O       9.57379      3.96327      6.23941        -0.098518     -1.805227      1.192466
O       9.88071     15.59737      6.50584         0.089821      0.770262     -0.364311
O       9.83361      3.90398     10.65422        -0.274108     -0.230234     -0.159676
O       9.66374     15.48609     10.39664         1.035788      0.506721     -0.198187
O       9.68475      7.57638      2.34025         0.065234     -0.086860     -0.491617
O       9.97231      7.76387     14.96949        -0.653447      1.267890     -0.256685
O      10.05370      7.66257      6.57002        -0.345851      1.566622     -0.227608
O      10.00124      7.69302     10.48890        -0.064240      1.571792      0.245246
O       9.93631     11.68935      2.36442        -0.027015      0.282984      0.105832
O       9.37933     11.50339     14.67952         1.306620      0.922398      0.359915
O       9.68884     11.49314      6.09201         0.422330     -0.654190      0.702308
O       9.46623     11.54236     10.86960         0.734113      0.075269     -1.580349
