  # total energy = -7831.46804668 
CRSYTAL
PRIMVEC
    15.6080000000000005    0.0000000000000000    0.0000000000000000
     0.0000000000000000   15.6080000000000005    0.0000000000000000
     0.0000000000000000    0.0000000000000000   16.6239999999999988
PRESSURE
4.67388 4.70838 0.467123 -0.051058 0.230102 0.344589
PRIMCOORD
320 1
Pb       4.33491      4.08668      4.30282        -1.552228     -1.357320     -0.804566
Pb       4.15795      3.69221      0.06134        -0.966808      1.068214      0.277513
Pb       4.34701      0.12330      4.25361        -1.193225     -0.183763     -0.092339
Pb       3.93631      0.17630      0.55791        -2.008875     -1.212287     -2.296483
Pb       0.51778      4.02003      4.24702        -2.294210     -0.984796     -0.161853
Pb       0.08863      3.92590      0.35202        -0.383750     -0.288819     -0.944044
Pb      15.35680      0.04591      4.22622         0.073818     -0.027022      0.036487
Pb       0.08825      0.07043      0.10266         0.937421     -0.174911     -0.211732
Pb       4.02578      3.67975      8.21010        -0.255651      0.296727      0.126874
Pb       3.96531      0.01047      8.92134        -0.929108      0.749163     -2.594791
Pb      15.48102      3.73117      8.23987         0.247398      0.959467      0.493896
Pb      15.07414     15.44257      7.99501         0.695021      0.799063      0.071194
Pb       3.66809      3.84455     12.25356         0.758841     -0.215500      0.577630
Pb       3.74733      0.51363     12.42092        -0.543764     -1.778338     -0.419763
Pb       0.28902      3.85782     12.54653        -0.928477     -0.220563      0.846909
Pb      15.13930     15.30923     11.86833         1.432277      0.449509      1.692169
Pb       3.92740      8.31180      4.19777        -0.801215     -1.245431     -1.055277
Pb       3.97165      8.00421      0.09142         0.242653     -0.663140     -0.058727
Pb       0.26033      7.61138      4.19610        -1.380817      1.255941      0.009952
Pb       0.18766      8.27381     16.52342        -1.641076     -2.076281      0.227474
Pb       4.22413      7.88931      8.95781        -1.013078      0.035306     -2.242700
Pb       0.04550      7.80540      8.71348        -0.191531     -1.223488     -1.800354
Pb       3.76500      7.39326     12.94988         0.329850      0.544188     -0.491384
Pb       0.03999      7.48572     12.66198        -0.322989     -0.454306     -0.043441
Pb       3.58542     12.15936      4.89134         0.654094     -1.708057     -2.261639
Pb       3.29053     12.01249      0.48875         1.431801     -0.329540     -2.113740
Pb       0.23220     11.62499      4.25549        -1.328695     -0.012857      0.036426
Pb      15.37635     11.72404     16.30762         0.456558     -0.489201      0.821657
Pb       3.65234     11.49322      8.50954         0.097727      0.405624     -0.935015
Pb      15.33731     11.56007      8.21737         0.849980     -0.829296     -0.664817
Pb       4.44276     11.85871     12.63814        -1.009596      0.690844      0.080097
Pb      15.12132     11.87548     12.46866         1.484799     -0.092638      1.035965
Pb       8.11707      3.98359      3.58507        -0.846207      0.292817      0.340764
Pb       7.78391      3.96088     16.42748         0.629714     -0.320932      0.789156
Pb       8.49902     15.58393      4.13231        -1.929529      0.183272     -0.046754
Pb       7.59641     15.24996     16.57949        -0.169649      1.398345     -0.293062
Pb       7.47354      4.05215      7.99777         0.275526     -1.268019      1.304326
Pb       7.64305      0.03032      8.42077         0.757132      0.458132     -0.870251
Pb       7.95404      3.91882     12.47128        -0.279080     -0.115408      0.122596
Pb       8.20393      0.29081     12.92284        -2.735832     -2.186569     -1.451242
Pb       7.48195      7.88314      4.06743         1.195445      0.294916     -0.939939
Pb       7.54921      7.91093      0.29755        -0.563042      0.266586     -0.421356
Pb       7.70864      8.10309      8.32203         0.061239     -1.058150      0.166279
Pb       7.63013      8.00425     12.65883        -0.060353     -0.061357      0.044736
Pb       7.64661     11.88053      4.04414        -0.095219     -0.502367      0.415252
Pb       8.00907     12.10739      0.02186        -1.768212     -1.722738     -1.397783
Pb       7.59988     11.38138      8.01963        -0.399925      0.904787      0.571308
Pb       8.01663     11.42984     12.88169        -0.328065      1.521921     -0.202240
Pb      11.30970      3.65222      3.87901         2.850587      1.927645      0.795637
Pb      11.92008      3.72534     16.54129         0.815678      0.548991      0.602412
Pb      11.75023     15.20295      4.40710         0.345005      0.569535     -0.426505
Pb      12.28249     15.59784      0.43112        -0.835021      0.023741      0.176958
Pb      11.56392      4.10974      8.68436         0.214560      0.172915     -1.673686
Pb      11.60634      0.40520      8.13081        -0.098414     -1.380755     -0.751608
Pb      11.54403      3.30837     12.53901         0.501532      1.734733     -0.288332
Pb      11.45829     15.10050     12.21249         0.413246      0.148400     -0.929691
Pb      11.05731      7.48753      4.24229         1.704546      0.121535     -0.155953
Pb      12.09853      7.91066      0.05656         1.036964      0.189530      1.030733
Pb      12.06819      7.48072      9.03763        -1.332932      0.496513     -1.994439
Pb      11.51920      7.62756     12.80480        -0.184799     -0.391887     -0.871696
Pb      11.29550     11.40158      3.94371         1.861476      0.414280     -0.296579
Pb      11.94261     11.41752     16.21473        -0.258822      0.608264      1.123755
Pb      11.07102     11.65953      8.29489         1.213664     -1.229620     -0.138725
Pb      11.64798     11.52036     12.29849        -0.149583      0.758148      0.396435
Ti       1.89025      1.96346      2.31982         0.636549      1.901163     -0.596138
Ti       2.10450      1.97624     14.70590        -2.219895     -1.074115     -0.686957
Ti       1.78655     13.65291      2.46553         0.680932      1.031817     -1.560085
Ti       1.77915     13.68605     14.59413         0.567261     -0.655884     -1.260327
Ti      13.53098      1.87806      2.39063         1.965091      1.571362     -1.197663
Ti      13.71145      1.78850     14.29803         2.689925      1.361447      0.289640
Ti      13.70089     13.34934      2.25898        -0.516931     -1.451445      0.723519
Ti      13.54229     13.83590     14.74034         0.188642     -5.145975     -1.457456
Ti       2.08505      1.95918      6.26437         0.768200     -0.833283      0.142976
Ti       1.66883     13.79492      6.50689         0.483992     -0.749303      0.521276
Ti      13.56905      2.32713      6.21288        -1.087064     -2.455242     -0.563254
Ti      13.39771     13.30212      6.17624         1.041495     -0.006212     -1.447159
Ti       1.67364      1.73170     10.27260         0.573953      0.432289      0.330220
Ti       1.98411     13.36855     10.39920         0.769093      2.064256     -1.571554
Ti      13.45617      1.83570     10.30280         0.272959      0.076269     -0.711952
Ti      13.48203     13.32405      9.95095        -1.519443      1.225785      2.364011
Ti       2.12716      5.95713      2.22272         0.176245     -1.459454     -2.232101
Ti       1.95141      5.79225     14.85599        -0.504450     -0.466110      1.240734
Ti      13.84450      5.77898      2.00386        -1.471544      0.506872      0.239702
Ti      13.76775      5.69502     14.57574         0.805572     -0.896276      0.884987
Ti       1.83288      5.80801      6.22016         0.789743      1.552963      1.736591
Ti      13.58950      5.85968      6.04976        -0.194529      0.974770     -0.260631
Ti       1.93648      5.92396     10.47624        -1.362916     -2.766893     -2.224831
Ti      13.63016      5.45119     10.69457         0.557857      0.655407      1.084874
Ti       1.82843      9.77844      2.09781         0.621254      0.336359      0.754716
Ti       1.96203      9.73062     14.28015        -1.119846      1.954212      2.326032
Ti      13.88537      9.54332      2.42361        -3.390914      0.168820     -1.921925
Ti      13.68270      9.53129     14.27860         2.443745      0.942001      1.852333
Ti       1.84628      9.61969      6.29666        -1.517828     -0.609725      0.789520
Ti      13.52084      9.56958      6.18459        -0.282430     -1.301545      0.025495
Ti       2.11934      9.56406     10.50919        -1.136687      1.205755     -0.469011
Ti      13.76492      9.58491     10.41761        -0.063169     -0.003064      0.070991
Ti       5.74671      1.99802      2.10814         2.357038      0.026418     -0.275503
Ti       5.81578      2.13278     14.24681         2.085021     -1.097939      2.055993
Ti       5.88325     13.66301      2.17604        -1.582142      0.251592     -1.367469
Ti       5.52276     14.09855     14.29820         2.803280     -3.226340     -0.703662
Ti       5.94742      1.78406      6.26452         0.947472      1.531447     -0.938243
Ti       5.76393     13.76895      6.27441         0.087671     -0.053907      0.222538
Ti       6.01603      2.03493     10.46841        -0.695211     -0.261546     -0.303609
Ti       6.03766     13.71815     10.14389        -1.553854      1.195937      1.804618
Ti       5.87651      5.91912      2.11383         0.267973      0.365939     -2.116492
Ti       5.93231      5.77433     14.49046        -0.679709      1.014067      0.898453
Ti       5.62601      6.00527      5.96139         0.461876      0.939316      3.433249
Ti       5.76821      5.94202     10.53069        -0.145751     -1.714673     -0.465210
Ti       5.69735     10.02952      2.14894         0.706603     -2.637007     -1.162894
Ti       5.67567      9.93231     14.65072         2.448197     -0.305984      0.438519
Ti       5.67565      9.75490      6.06665         0.994007      0.882470      0.292349
Ti       5.90135      9.98873     10.49777         0.960027     -0.561313      0.385349
Ti       9.74652      1.82229      1.84016        -0.399776      0.053170      0.156527
Ti       9.95004      1.86795     14.72651        -0.518802      0.220356      1.439952
Ti       9.84058     13.62890      1.77039         2.248421      1.561766      0.978664
Ti       9.86214     13.61414     14.44139        -0.882812     -1.495582      0.050437
Ti       9.72081      1.96674      6.11761         0.542122     -0.663050      1.833222
Ti       9.57000     13.34162      6.10514         0.797701      1.844184      1.613051
Ti       9.61326      2.03435     10.06838        -0.251805     -1.355261      0.768121
Ti       9.57564     13.49882     10.14524         2.489597      0.411473      1.412928
Ti       9.93264      6.06244      1.76766        -1.404071     -2.291788      0.287674
Ti       9.83219      5.69774     14.43530         0.479971      0.236390      0.778563
Ti       9.62574      5.65402      6.55851         1.400170      0.260025     -0.664758
Ti       9.46973      5.87489     10.50917         3.220301      1.044073     -0.543547
Ti       9.69886      9.67789      1.91178        -0.310848      0.067893      0.154667
Ti       9.59135      9.56353     14.81633        -0.937451      0.875598     -0.302666
Ti       9.62722      9.51059      6.10496         1.415721      3.489589     -0.001812
Ti       9.82185      9.74365     10.58890        -0.786565     -1.384889     -0.028391
O       2.14336      2.32810      0.31857        -0.290831     -1.349853      0.260623
O       1.75236      1.77455     12.82623         1.497129      0.839901      1.158009
O       1.68780     13.70279      0.49045         0.979910     -0.370840      0.806792
O       1.64073     13.51731     12.75468         0.527444      0.590307     -0.580866
O      14.00117      1.73675      0.52031        -0.891693     -0.208774     -0.610782
O      13.43997      1.84258     12.48292        -0.057416     -1.090582      0.862534
O      13.59496     13.59010      0.46921         0.604063      0.517835     -2.707741
O      13.64406     13.57776     12.85005        -0.616741      0.368971      0.376701
O       1.97119      1.88688      4.46835         0.107391     -0.180690      0.667710
O       1.97221     13.89393      4.48903        -0.504171     -1.103169     -0.925267
O      13.55788      2.03665      4.32443         0.095329     -0.185701      0.995104
O      13.76009     13.32271      4.23412        -0.969239      0.715342      2.636490
O       1.73447      1.81631      8.44525         0.340240      0.549816      0.562980
O       1.91673     13.74590      8.44207        -0.813380     -0.806295      1.773320
O      13.24688      2.12004      8.33707         1.377647     -0.333863      1.545009
O      13.54664     13.37839      8.21608        -1.135069     -0.483139     -1.084354
O       1.93240      5.98061      0.31995         0.055311     -0.948431      0.247666
O       1.87729      5.90619     12.97804         1.233676     -0.033142     -2.239567
O      13.91967      5.86119      0.12816        -1.140554     -0.093819      0.157716
O      13.78698      5.64956     12.71162        -0.273861      0.432168      0.027074
O       1.82679      5.97410      4.30549         0.178181     -0.510945     -0.141104
O      13.69162      5.78562      4.18434        -0.136064      0.704777      3.100161
O       1.94012      5.77059      8.59315         0.572225     -0.252780      1.530565
O      13.78341      5.77231      8.95639        -0.376639     -0.876247     -1.314821
O       1.59332     10.02956      0.29068         1.324218     -0.554144      1.044357
O       1.97093      9.75751     12.54791         0.280266     -0.275449     -1.119778
O      13.79649      9.62462      0.53526         0.091468      0.468700     -2.523940
O      13.74952      9.96114     12.61157        -0.576351     -1.239646     -2.542658
O       1.98015      9.59152      4.36156        -0.219590      0.241983      1.188886
O      13.43390      9.42691      4.39068         0.231435      0.164197      0.426125
O       2.09326      9.33385      8.44120         0.383794      1.374947      0.247875
O      13.90935      9.36795      8.60811        -1.706018      2.187734     -0.740911
O       5.66517      1.81998      0.25455        -0.049962      1.418127      0.650786
O       5.99794      2.14843     12.45595        -0.943212     -0.254469      1.980475
O       5.99805     13.62514      0.12968        -0.064236      0.222404      1.110598
O       5.60439     14.03528     12.38752         0.258250     -1.425596      1.281817
O       6.07010      1.69556      4.39197        -0.611640      0.597258     -0.519359
O       5.83359     13.85980      4.27750         0.512269     -0.041128      0.021513
O       5.98001      1.97303      8.65184         0.003903      0.197695     -1.217817
O       5.93917     13.92161      8.28762         0.377361     -1.233668      0.351957
O       5.92194      5.88469      0.28720         0.046552      0.049526     -1.160911
O       5.66754      5.51761     12.73081         0.922448      1.081714      0.129708
O       5.88985      6.20453      4.22101        -0.083049     -1.403802     -0.261660
O       5.37600      5.82084      8.70940         1.015717      0.031202      0.994257
O       5.78968      9.78941      0.36339        -0.301890     -0.109063     -1.755294
O       5.89911      9.86865     12.68887        -0.111618     -0.003339     -0.412610
O       5.98529      9.64813      4.20968        -0.706099     -0.059724      0.341187
O       5.79352      9.79194      8.49249        -0.155221     -0.034453      0.786984
O       9.88420      2.13101      0.09968         0.064715     -0.957507     -1.492723
O       9.67523      1.79840     12.96245         2.111970      2.049533     -2.743458
O       9.72861     13.84624     16.62026         0.270738      0.172074      0.001382
O       9.83722     13.23298     12.40468         0.027421      1.589388      2.028712
O       9.92644      1.95879      4.30407        -1.405285     -0.234966     -1.463095
O       9.63302     13.50875      4.30749         0.771643     -0.733245     -1.230072
O       9.70117      1.77729      8.28477        -0.517146      0.787506      1.859805
O       9.75541     13.62369      8.33281        -0.161045     -0.454583     -0.287781
O       9.77872      5.72829      0.06890         0.517722      0.436120     -1.762601
O       9.72036      5.84999     12.63567         0.185158     -0.246407     -0.738898
O       9.65665      5.58331      4.70408        -0.031621      0.862609     -1.145549
O       9.64974      5.91704      8.64186        -0.605123     -0.031499     -0.188999
O       9.72948      9.18806      0.19216         0.589142      1.751990     -1.694193
O       9.72985      9.87532     12.79224         0.003636     -1.086897     -0.449001
O       9.59827      9.90763      4.28795        -0.490943     -0.833324     -0.601705
O       9.56287      9.48855      8.82927        -0.489339      0.426479     -2.587478
O       4.00389      2.33857      2.50068         0.080786     -1.363412     -0.224803
O       4.07336      1.93065     14.52466        -1.577130      0.831710      0.318856
O       4.05554     13.44412      2.15463        -0.191961      1.079596      0.472355
O       3.92323     13.57924     14.61069        -2.208625      0.243631      0.181314
O       0.08696      1.86340      2.48478        -0.521404      0.101002      0.236039
O      15.54302      2.01334     14.49538         0.022024     -0.732059      1.056724
O       0.01017     13.66177      2.49763         1.005760      1.254301      0.503831
O      15.55116     13.67797     15.00012        -0.134101      0.560428     -0.451894
O       4.06286      1.75083      6.62542        -3.452568      0.994451     -0.541564
O       3.90263     13.65655      6.44922         0.122716      0.383246      0.376360
O      15.49338      2.14347      6.54395        -0.115082     -0.182522     -0.703079
O      15.35372     13.54811      6.55311         1.412788      0.366606     -0.462172
O       3.70360      1.73866     10.46424         0.477521      1.845158      0.576616
O       3.88941     13.72646     10.05762        -2.045456     -2.158241      2.032332
O      15.36953      1.52267     10.43997         0.875001      1.245286     -0.626770
O      15.26174     13.68610     10.24411         2.304585     -0.102506      0.451288
O       3.96134      6.05407      2.15472        -0.706095     -1.211360      0.862154
O       3.98568      6.07308     14.79369         0.334482     -0.543825      0.386122
O      15.56985      5.42577      2.23011         1.660525      0.918138      0.784480
O       0.12462      5.81740     14.58852        -1.286852     -0.957575      0.795625
O       3.70953      5.99295      6.03057         2.298034      0.175889      0.462476
O      15.59696      5.46797      6.59030        -0.847207     -0.292585     -0.945631
O       3.78179      5.76115     11.08223         0.277159      1.426643     -1.441912
O      15.60119      5.83420     10.80496         1.212277     -0.122063      0.225528
O       3.85009      9.92531      2.25161        -0.974739     -0.992156      0.183005
O       3.93084      9.79451     14.94224        -2.594381     -0.316625     -0.733807
O       0.04364      9.69844      2.65988         3.193841     -0.679566      0.375004
O      15.59967      9.83877     14.58261         1.536007     -0.467452      0.271551
O       3.92751      9.82301      6.21708        -2.872129     -0.345657      0.445010
O      15.60127      9.77168      6.35817         0.609997      0.183888     -0.059047
O       4.02082      9.69347     10.65093        -2.406128      0.373595     -0.355652
O      15.57544      9.44592     10.33689         2.140226      1.434226      1.861245
O       7.85857      1.77142      2.01884         0.719692      0.660261      0.614195
O       7.95418      2.07232     14.75112        -0.538448     -0.507378     -0.091408
O       7.97388     13.55906      2.03541        -1.854579      1.262481      0.970489
O       7.99111     13.66809     14.72739        -0.343141      0.383964     -0.494310
O       7.80865      1.72131      6.53807        -0.134394      0.666080     -0.335278
O       7.86414     13.77379      6.21578        -2.318877      0.043263      0.597621
O       7.78602      1.66670     10.86773         1.590985      0.751543     -1.532618
O       7.86780     13.89318     10.21825        -2.394110      0.004963      0.672830
O       7.91677      5.89140      2.06031         0.137273     -0.512625      1.340570
O       7.83462      5.59858     14.42584        -0.237218      0.180633      1.018720
O       7.51561      5.66074      6.61525         0.088652      2.181591     -1.295666
O       7.73924      5.90039     10.62386        -3.150857      0.561004      0.526996
O       7.73223      9.72172      2.06277         1.999333      0.095378      0.628119
O       7.72951      9.83717     14.93120         1.812004     -0.378100     -0.529724
O       7.45493      9.64657      6.43218         3.930450     -0.197922      0.798369
O       7.67608      9.86508     10.60653         0.207474     -0.805128      0.491965
O      11.79907      1.90402      2.00191        -1.941580     -0.143153      0.317262
O      11.91079      2.13616     14.69819        -1.103399     -1.043246      0.613492
O      11.78091     13.37419      2.29941        -0.777445      0.143941      0.413911
O      11.68197     13.44235     14.89339         1.264245      0.618283     -0.180533
O      11.53690      2.26334      6.42384         0.946953     -1.468132     -0.283101
O      11.54590     13.47533      6.20840         0.738079     -1.079171      0.045036
O      11.46898      2.28019     10.41389        -0.120547     -1.196746      0.001931
O      11.61414     13.30955     10.53329         0.853284      0.128624     -0.634721
O      11.63904      6.25874      2.41911         0.215080     -1.261210     -1.116326
O      11.78899      5.83559     14.46179        -0.168647      0.779725      0.714514
O      11.56250      5.72155      6.69501         0.680763      1.277751     -0.682638
O      11.65518      5.65385     10.51829         0.465357     -0.250912      1.017889
O      11.87278      9.51611      2.08496        -3.176006      1.090394      1.100719
O      11.96272      9.57663     14.77833        -2.846982     -0.831832      0.287609
O      11.52751      9.88003      6.37014        -0.073125     -0.507024     -0.030114
O      11.65125      9.92460     10.42865         0.658639     -0.061892      0.632913
O       1.94645      3.89283      2.60545         1.228752      1.258228     -0.683463
O       2.13640      3.90828     14.80330         0.175934     -1.023926     -0.098514
O       2.19376      0.22697      2.30220         0.310488     -3.074043      0.079423
O       2.16927      0.02583     15.21923        -1.116574      0.525403     -1.278045
O      13.36625      3.87954      2.12999         0.445656      0.340988     -0.106579
O      13.83605      3.86462     15.11083        -0.680260     -0.069989     -1.229749
O      13.54214     15.50973      2.49066         0.403905     -0.143937      0.248413
O      13.76488     15.50014     14.77220        -0.507876      4.189020      0.268061
O       2.44617      3.90024      6.21228        -1.561813     -1.201768      0.561575
O       1.68071     15.50296      6.44145        -0.150312      3.010446      0.162593
O      13.36438      4.01789      6.45784         1.177518      1.357680      0.158501
O      13.33815     15.53207      6.39993         0.610423     -0.267954     -0.533785
O       1.89396      3.83576     10.93258        -0.514007     -0.415699     -1.783154
O       1.95556      0.00937     10.95240        -0.749491     -1.546409     -1.633154
O      13.80404      3.55604     10.84842        -0.098944      2.455470     -0.960181
O      13.39324     15.56370     10.30727        -1.157917     -0.979943     -0.141412
O       1.96736      7.80025      2.26141        -0.430275      1.280860      0.218841
O       1.79318      7.70266     14.84475         1.393787      3.611952     -0.810112
O      13.92417      7.73950      2.02544         0.329751     -1.448182      1.235827
O      14.07092      7.71755     14.68142        -1.524808      0.273243     -0.395359
O       1.37764      7.65076      6.37107         1.722546      0.406978     -0.282323
O      13.80659      7.72615      6.79002        -0.838527     -1.293163     -2.137009
O       1.88720      7.77079     10.54513         0.925348     -0.585680      0.938244
O      13.62352      7.74048     10.64718        -0.587490     -0.220656      1.558322
O       2.01984     11.72595      2.34488        -1.287092      0.450214      1.334950
O       1.85727     11.73070     14.75483         0.394483     -0.320804      0.034224
O      14.27456     11.52006      2.22032        -1.843262      1.683270      0.777534
O      13.64760     11.60546     14.68031         0.204084      0.058985      0.443887
O       1.92253     11.69860      6.48435        -0.009729     -0.681699      0.214355
O      13.84431     11.45601      6.22743        -1.331267      1.102221      0.804275
O       1.89377     11.48757     10.15688         0.107242      1.855142      0.801918
O      13.76830     11.63767     10.65417        -0.631308     -0.480246     -1.344666
O       5.95317      3.99210      2.24505         0.311205     -0.959565      0.617416
O       5.96391      3.86729     15.06951        -1.013670      0.193844     -1.571266
O       5.61311      0.01850      1.94321         1.613553     -0.570371      2.891196
O       5.89653      0.15904     14.67503         0.577888      1.803753      0.097840
O       5.70909      3.76219      6.33250        -0.284766      1.352897      0.308564
O       5.60375      0.04500      6.47855         1.284041     -2.757516     -0.291612
O       5.76195      3.94499     10.55356         0.245346     -0.190058      0.098630
O       5.68058      0.06891     10.38763         1.011533     -0.713214      0.160623
O       5.81523      7.78648      2.18002         0.729860      1.334907      0.431616
O       5.95272      7.94247     14.63528         0.056576     -1.619127     -0.206456
O       5.65578      7.80919      6.44083         0.316693     -0.727020     -0.425794
O       5.85896      7.92297     10.67963        -0.090296     -1.857415     -0.173834
O       5.97883     11.70867      2.49745         0.177995      2.773046     -0.211664
O       5.96353     11.75735     14.41947        -0.721225      0.614154      0.106994
O       5.78008     11.72572      6.03092         0.872330      0.529515      1.006857
O       5.77466     11.90363     10.37516         0.099295     -0.770418      0.421472
O       9.92541      3.81922      2.10654        -0.867843      0.535642      0.405217
O      10.06838      3.85404     14.43897        -1.144461     -0.184643      1.099296
O      10.11209      0.00245      2.29397        -0.874033     -0.493477     -0.244735
O      10.04811     15.44845     14.37227        -0.073699      1.305525      0.827356
O       9.67006      3.83331      6.55413        -1.615328      0.427485      0.621765
O       9.87054      0.00305      6.11710         0.156586     -0.252153      0.024414
O       9.34829      3.92864     10.55781         0.859346     -1.705167     -0.373292
O       9.94055     15.54174     10.49032        -0.275455      0.602818      0.031755
O       9.58601      7.81473      2.16319         0.162800      0.694541      1.430616
O       9.57321      7.73726     14.54238         0.774231     -0.012891     -0.266182
O       9.58987      7.83420      6.25972        -0.866354     -2.945994      0.936898
O       9.86815      7.79310     10.85296        -0.366407     -0.291928      0.131522
O       9.70831     11.86752      1.67058         0.972529     -4.480103      1.468099
O       9.83007     11.57028     14.70529         0.028456     -0.175771      0.876675
O       9.41008     11.50634      6.51194         0.367089      0.425548      0.010868
O       9.43537     11.59560     10.44154         0.787090      1.342507     -0.635960
