  # total energy = -7848.89087795 
CRSYTAL
PRIMVEC
    15.6080000000000005    0.0000000000000000    0.0000000000000000
     0.0000000000000000   15.6080000000000005    0.0000000000000000
     0.0000000000000000    0.0000000000000000   16.6239999999999988
PRESSURE
2.83753 2.96942 2.52076 -0.336152 -0.31221 -0.140436
PRIMCOORD
320 1
Pb       3.99339      3.91656      4.17254        -0.425195      0.304495     -0.315247
Pb       3.94796      3.79826     16.60524         0.365750      0.421908     -0.336163
Pb       4.02074      0.00140      4.11778        -0.957026      0.031105      0.740920
Pb       3.90853      0.06516      0.08805        -0.377556      0.156880      0.202351
Pb       0.09222      3.86728      4.15597        -0.102374      0.887254     -0.075164
Pb       0.01543      3.87662      0.01597        -1.003362     -0.267191      0.448514
Pb      15.54898      0.02254      4.12375         0.241962     -0.494143      0.497591
Pb       0.00421      0.02241     16.59480        -1.223901     -0.062533      0.906301
Pb       3.93448      3.83226      8.23992        -0.132078      0.720096      0.504472
Pb       3.90181      0.01092      8.43951        -0.247621     -1.043350     -0.344836
Pb      15.58551      3.81797      8.30777        -0.234218      0.676681      0.019290
Pb      15.48524     15.57271      8.23370        -0.017865     -0.559608     -0.155709
Pb       3.81258      3.85609     12.37194        -0.188920      1.106303      0.236203
Pb       3.85876      0.11915     12.40547        -0.182406     -0.561743      0.879103
Pb       0.05948      3.89718     12.41997         0.557331      0.200928      0.365589
Pb      15.45243     15.48469     12.25726         0.757729      0.667579      0.500040
Pb       3.89614      7.94955      4.13300         0.304818     -0.980564      0.523502
Pb       3.94351      7.84645     16.59141        -0.484590     -0.275717      0.422395
Pb       0.04265      7.75380      4.13159        -0.523551     -0.035104      0.554319
Pb       0.01111      7.91991     16.55057        -0.418764     -0.068139     -0.106495
Pb       3.97550      7.83619      8.41179         0.711971      0.003507      0.658478
Pb       0.01307      7.79108      8.37784        -0.761639      0.504409     -0.461933
Pb       3.85817      7.70020     12.54792         0.038085     -0.154117     -0.626300
Pb      15.59216      7.72878     12.43915        -0.145646     -0.905622      1.128643
Pb       3.82459     11.79149      4.29726         0.008351     -0.212232     -0.027774
Pb       3.74739     11.74319      0.08506         0.275037     -0.242373     -0.187003
Pb       0.06140     11.65666      4.11156        -0.080537     -0.003007      1.568260
Pb      15.53346     11.65489     16.53007        -0.593048      0.221612     -0.175454
Pb       3.86081     11.61099      8.23254        -1.205557      1.077591      2.633442
Pb      15.55189     11.66028      8.23245        -0.021404     -0.567679      0.918940
Pb       4.09980     11.76557     12.42447        -1.514414     -1.082589      1.070416
Pb      15.49991     11.70322     12.45510        -0.567076      0.992354      0.061068
Pb       7.92913      3.90480      3.94119        -0.548981     -0.023491      1.236007
Pb       7.81976      3.92590     16.51594        -0.555859     -0.387206      1.039327
Pb       7.97901     15.59007      4.09891        -0.161404     -0.543133      1.466201
Pb       7.70532     15.48809     16.55764         1.624327     -0.617437      0.979807
Pb       7.65763      3.94999      8.10819         1.068077      0.343464      2.598541
Pb       7.74945     15.60758      8.30530        -0.017883      0.422286      0.611195
Pb       7.81733      3.90274     12.41568         0.163902     -0.152810      0.390498
Pb       7.94741      0.11863     12.51024        -0.545056     -1.465826      0.785101
Pb       7.71655      7.82309      4.10737        -1.095078     -0.616118      0.595885
Pb       7.71613      7.83194      0.06642         0.813150     -0.364421     -0.835169
Pb       7.75037      7.87860      8.27572        -0.636040     -0.517892      0.257481
Pb       7.76616      7.90252     12.44440        -0.449013     -0.905488      0.497741
Pb       7.75060     11.73620      4.07566        -0.052732      0.209533      0.719849
Pb       7.85208     11.87926     16.57945         0.698188     -0.953584     -0.017562
Pb       7.71067     11.59668      8.13854         0.583783     -0.151257      1.592987
Pb       7.82470     11.57600     12.53814         0.222223      0.646202     -0.008418
Pb      11.54388      3.87027      4.05682         0.494103     -1.516055      0.476177
Pb      11.72560      3.81901     16.56243         0.427302     -0.202723      0.674135
Pb      11.67319     15.54056      4.19261         0.037788     -1.064214      0.080046
Pb      11.79831     15.59998      0.08461         0.294840      0.124053     -0.518617
Pb      11.60516      3.96732      8.38328         1.850711     -1.011914      0.719167
Pb      11.64097      0.06854      8.21125         0.768834     -0.272675      0.348951
Pb      11.62963      3.73586     12.39222        -0.204747      0.004085      0.693126
Pb      11.63369     15.45728     12.38868        -0.507260      1.006827      0.677541
Pb      11.47252      7.69207      4.15257         1.999424      0.503071      0.759505
Pb      11.79351      7.83366     16.57294        -0.433948      0.108770      0.423643
Pb      11.77026      7.70028      8.47473         0.189160      0.498820     -1.036955
Pb      11.64210      7.76032     12.49350         0.451641     -0.144148      1.153253
Pb      11.56420     11.58759      3.99568         0.508548      1.003776      2.263904
Pb      11.77275     11.57052     16.45552        -1.039580      0.624801      0.654331
Pb      11.52635     11.69230      8.26542         0.759738     -0.466575     -0.094217
Pb      11.73156     11.63814     12.41057        -0.510834      0.125535      0.325586
Ti       2.04515      1.95287      2.15034        -0.027061     -0.603720     -0.100347
Ti       1.90269      1.95641     14.76775         0.016117     -0.462838     -0.520786
Ti       1.87371     13.67357      2.22293         0.748089      0.709290      0.295575
Ti       2.03477     13.93616     14.44999        -0.802119     -2.005882     -0.908239
Ti      13.76256      2.11435      2.25117        -2.091519     -0.898005     -2.101854
Ti      13.63495      1.90684     14.72523        -0.397907      0.648193      2.159835
Ti      13.71805     13.64117      2.20335        -0.973262      1.225070     -2.412592
Ti      13.81287     13.75308     14.43314        -3.751739     -0.093044      2.415143
Ti       1.90981      1.95102      6.46435        -0.575353     -0.075189     -1.190683
Ti       2.03788     13.65207      6.51521        -1.867718     -0.701098     -0.248476
Ti      13.48692      1.99758      6.17062         1.475513     -1.208820     -0.055991
Ti      13.61475     13.57572      6.45482        -0.966304     -0.628188      0.053111
Ti       2.01054      1.94382     10.30932        -2.686125      0.432258      1.901424
Ti       1.84801     13.59019     10.58817         0.272372      0.129810     -2.060393
Ti      13.81346      1.98234     10.53337        -2.355659      0.235951      0.256648
Ti      13.44024     13.75222     10.47703         1.114509     -3.382792     -0.619892
Ti       2.00976      5.86266      2.07414        -0.210292     -0.290377      1.621397
Ti       1.87881      5.88138     14.94701         0.899414     -0.077778     -2.858642
Ti      13.52417      5.87278      2.27434         2.049838      0.348508     -1.081646
Ti      13.66263      5.81133     14.79396        -0.641890      0.338195     -0.665813
Ti       2.11083      5.91789      6.57842        -0.103189     -0.171841      0.124945
Ti      13.66177      5.72473      6.26856         0.115842      1.599411      2.513140
Ti       1.90771      5.97600     10.43831         1.326315     -0.967351      4.238918
Ti      13.53779      5.88528     10.60583         1.520501     -0.785112      2.290471
Ti       1.99478      9.76401      2.29360         0.645346     -0.296611     -1.506662
Ti       2.10443     10.00943     14.73294        -1.562929     -5.297653     -2.582177
Ti      13.58283      9.94299      2.23842         0.370369     -2.315576     -0.526134
Ti      13.59292      9.72368     14.60257         0.124116     -0.895851     -0.627814
Ti       1.94449      9.70707      6.55733        -2.264462      1.221453     -0.636001
Ti      13.62002      9.59812      6.33124        -0.146124      0.933474      0.952809
Ti       1.62823      9.92649     10.83563         4.843621     -1.763201     -2.368821
Ti      13.44594      9.73440     10.56042         3.446179      0.435129      1.097492
Ti       6.09483      1.79585      2.32616        -0.140852      1.768065     -1.858991
Ti       5.94028      1.70922     14.84389        -1.117380      2.597886     -0.760583
Ti       5.77275     13.71034      2.26561         1.619387     -1.115471      0.033290
Ti       5.72810     13.54566     14.89327         1.900251      0.894965     -2.905128
Ti       5.80152      1.87779      6.21193         0.092006      0.564537      2.243033
Ti       5.83982     13.64550      6.47738         0.055998     -0.345269     -0.945381
Ti       5.62330      1.85315     10.41701         2.805491      2.130128      0.842560
Ti       5.76920     13.51940     10.72506         0.629614      1.118625     -1.283066
Ti       5.92482      5.71511      2.17686        -2.236515      1.257588     -0.605117
Ti       5.78500      5.78330     14.73419         1.451217      0.613817     -2.126284
Ti       5.93092      5.76786      6.39725         1.478384      3.052094      2.676495
Ti       5.99521      5.79484     10.54120        -1.722475     -0.142346      1.942904
Ti       5.91356      9.89279      1.99259        -1.037644     -0.837022      2.713054
Ti       5.93473      9.71051     14.72928        -0.405315     -0.066695     -1.287934
Ti       5.73194      9.89059      6.31315         0.493140     -3.099285      0.157728
Ti       5.71648      9.61513     10.57681        -0.821567     -0.433055      1.072328
Ti       9.81876      1.75704      2.05041        -0.994252      0.424543     -1.603112
Ti       9.64263      1.87415     14.67667         2.739713      0.642057     -0.351501
Ti       9.74373     13.44550      2.14198        -0.469513      2.023334     -0.231508
Ti       9.77668     13.71530     14.70935         0.383512     -0.823365      0.952571
Ti       9.69110      2.04351      6.38660        -0.073228     -0.049558     -0.676755
Ti       9.66555     13.72035      6.47099         1.396055     -1.673380     -1.996927
Ti       9.70745      1.89122     10.52671         0.771681     -0.058315      0.550028
Ti       9.61621     13.49112     10.53651        -0.278098      1.086315      1.591241
Ti       9.78720      5.73820      2.06593        -0.531326     -0.295994     -1.370571
Ti       9.72713      5.85753     14.89502        -0.188944     -0.006875     -2.777563
Ti       9.95017      5.84401      6.17102        -1.345451     -0.706563      4.773434
Ti       9.80320      5.91213     10.52815        -0.091531     -2.604205      0.413709
Ti       9.81318      9.59346      2.29792        -1.308669      1.801566     -3.259170
Ti       9.71233      9.72223     14.58973         1.209242      0.495607     -1.545372
Ti       9.74570      9.58667      6.45790         2.021894      0.943737     -0.003365
Ti       9.72459      9.67395     10.53107        -1.030459      0.410677     -0.222772
O       1.75940      1.39928      0.37907         1.607015      2.202728      2.704987
O       1.80578      1.97814     13.03457         0.207849      0.151037     -1.373907
O       1.83691     14.11832      0.45889         0.722570     -1.930575      0.579912
O       1.68664     13.91792     12.59355         1.073883     -0.683155      3.223683
O      13.37814      2.11523      0.39489         1.185665     -0.996153      1.645367
O      13.74408      1.74741     13.05508         0.011682      0.295512     -2.889186
O      13.68909     13.39987      0.36097         0.026321      0.850841      2.041143
O      13.59822     13.71052     12.68566         0.270812     -0.465059      0.698731
O       2.02798      2.18671      4.66037        -0.211768     -0.969369     -0.660159
O       1.67158     13.37113      4.67445         1.135088      0.798751      0.783507
O      13.51347      1.90740      4.32973         0.127149     -0.362169      0.982136
O      13.42589     13.51393      4.68854         0.603526      0.414666     -1.964296
O       1.82979      2.02156      8.57687         0.522720     -0.506206     -0.718147
O       1.91962     13.44381      8.59155         0.003157      0.577891      1.134557
O      13.97002      1.71311      8.81119        -1.420197      0.647796     -0.078198
O      13.51904     13.76332      8.70109        -0.310432      0.065142     -0.137443
O       2.13875      5.55578      0.34226        -0.468623      1.665702     -0.142953
O       1.96057      5.55244     13.08170        -0.212467      0.350938      1.368041
O      13.62447      6.09132      0.46802         0.138307     -0.858679      1.564426
O      13.72259      6.08951     13.00948         0.090946     -1.460033      1.097989
O       2.19437      5.93966      4.88049        -0.644329     -0.583301     -1.075380
O      13.77868      5.48074      4.58712        -0.257775      1.447175     -1.661802
O       1.69170      5.78623      8.80281         0.653945      0.191796     -4.112375
O      13.48507      5.74503      8.92767         0.084920      0.499777     -2.114042
O       2.23838      9.70329      0.40513        -1.377992      0.470787      2.594205
O       2.31130      9.88364     12.86684        -1.387716     -0.274075      0.980466
O      13.24092      9.73960      0.44309         2.096215      0.250555      0.876526
O      13.50251      9.59867     12.77970         0.090832      1.003833      2.518099
O       1.94059      9.69697      4.79026         0.388308      0.542396     -2.715124
O      13.70723      9.71674      4.55239        -0.738909      0.041796     -1.026364
O       1.62628      9.84341      8.98716        -0.027937     -0.206514     -0.141783
O      13.54814      9.62511      8.85161         0.796765     -0.354286     -1.535734
O       6.29858      1.60614      0.50463        -1.852702      1.384344      1.046038
O       5.62469      1.95075     13.18452         0.643758     -0.522773     -1.862917
O       5.61094     13.72962      0.51711         0.459318     -0.058731     -1.345988
O       5.67077     13.72143     13.04528         0.456868     -0.261021     -0.445239
O       5.76296      2.01227      4.44067         0.382905      0.020905      0.925640
O       5.92161     13.32432      4.72936        -0.789926      0.709664     -0.755938
O       5.56122      2.07770      8.66121         0.925748     -1.206359      0.423349
O       5.78847     13.64960      8.88852         0.051709      0.077208     -0.294355
O       5.78237      5.93501      0.41478         0.246759     -0.622837      0.484034
O       5.87057      6.21839     12.84670        -0.505185     -1.988765      2.236112
O       6.02331      5.73702      4.75495        -0.559189     -0.032722     -5.053633
O       6.14387      6.12572      8.86275        -0.426177     -1.075677     -1.874939
O       5.93670      9.98501      0.23365        -0.234098     -1.389521      0.392749
O       5.90169      9.73088     12.72741        -0.077948     -0.528545      3.278564
O       5.64276      9.89974      4.51975         0.633220     -0.138104      1.999493
O       5.85739      9.37914      8.82043         0.083308      1.184809     -1.027317
O       9.72292      1.65172      0.22389        -0.134468      0.456343      1.702730
O       9.77736      1.77090     12.79947        -0.262815      0.562585      1.813441
O       9.54591     13.59937      0.30461         0.892540     -0.284730      1.473936
O       9.50681     13.52793     13.04315         0.343888      0.349463     -1.572496
O       9.60783      2.11388      4.54382         0.511490     -0.415584      2.102420
O       9.70446     13.79039      4.61279         0.027443     -0.220558      1.042135
O       9.65769      1.84170      8.67847         0.431906      0.074124      0.660684
O       9.59849     13.43000      8.78622        -0.365068      0.941054     -1.045461
O       9.65234      6.20074      0.16483        -0.046791     -1.406216      4.683684
O       9.78820      5.39044     13.08242         0.267231      1.349622      0.625416
O       9.60645      5.76488      4.50708         0.384244      0.140249     -2.992486
O      10.19999      5.51036      8.81004        -2.065342      2.067698      1.302261
O       9.57771      9.91277      0.45107         0.199280     -1.017254      2.151513
O       9.84551      9.54052     12.58299        -0.629846      0.789661      2.003038
O       9.80319      9.84408      4.61026        -0.039218     -1.386670     -0.160010
O       9.87643      9.66216      8.64537        -0.965836      0.383199      0.866534
O       3.96483      1.82903      2.34778        -1.618957     -0.537947     -0.109798
O       3.81197      1.70558     14.86967         0.401060      0.397511      2.012756
O       4.01283     13.80416      2.53446        -2.103352     -0.470836      0.828674
O       3.87259     13.59775     14.68500        -4.016038      0.910944      1.194446
O      15.52903      1.64949      2.47312         2.135978      1.624828     -0.069760
O      15.51968      2.00100     15.13878        -0.095289     -0.409882      0.159407
O       0.00953     13.48422      2.47533         0.024717      0.342514      0.116551
O      15.43912     13.11838     14.62981         2.541614      1.754351      0.627184
O       3.90988      1.95711      6.73604         0.620975     -0.477869     -0.839250
O       3.88849     13.74038      6.71227         0.069032     -0.527779     -0.342170
O      15.53856      1.78328      6.72006         0.143386      0.889415     -1.307735
O      15.42952     13.42195      6.84532         0.856256      1.055124     -1.231806
O       3.79062      1.96322     10.70385         1.140131     -0.002393      0.423490
O       3.74413     13.51085     10.87514         1.090496      0.624853     -0.056161
O       0.01983      1.87866     10.88499         0.013563      0.076784     -0.266512
O      15.46886     13.44134     10.78755         0.365037      0.848705     -0.362889
O       3.81596      5.79186      2.53245        -0.120533      0.056627      0.185957
O       3.96265      5.60928     15.07899        -1.443124      0.586309     -0.129256
O       0.05184      5.81141      2.64974         0.186540      0.126280     -0.385857
O      15.57751      5.80401     15.17773         1.157678      0.342014      0.186598
O       4.16218      5.89153      6.94639        -3.784894     -0.327390     -0.203516
O      15.41372      5.79484      6.95946         1.672046      0.314060     -0.941813
O       3.83665      5.65999     10.79271        -0.000437      0.135694     -0.128571
O       0.03737      5.60676     10.85799        -0.517741      1.258417      0.143812
O       3.95558      9.64854      2.65368        -0.418252      0.592801     -1.530321
O       3.83766      9.82430     15.13648         3.088157     -0.327911     -0.170161
O       0.00230      9.88742      2.46971         0.331807     -0.590017     -0.530821
O       0.03765      9.60398     15.02076        -0.793265      1.114476     -0.176224
O       3.74757      9.77277      7.02577         3.157868     -0.977156     -1.341112
O      15.55784      9.70528      6.64115        -0.777505     -0.004494      0.638463
O       3.90011      9.88993     10.75652         0.978436     -0.411001     -0.231582
O      15.53440      9.71682     11.24847        -1.430204      0.009825     -1.020414
O       8.04072      2.04757      2.57057        -4.137188     -0.852004     -0.161675
O       7.85161      2.07617     14.95881        -1.613691     -0.372758     -0.234758
O       7.76173     13.75633      2.61618         0.565503     -1.266036     -0.506260
O       7.61849     13.55475     15.04743         0.627664      0.383256     -0.065328
O       7.69940      1.99818      7.02243        -0.500668     -0.260668     -2.705607
O       7.69283     13.26965      6.63608         1.116560      1.389698      0.327113
O       7.85071      1.76670     11.09352        -1.129108      1.002686     -2.273760
O       7.63585     13.60332     11.06024         0.924847      0.138673     -0.757707
O       7.73335      5.65862      2.31977         2.075176      1.055088      0.309427
O       7.74538      6.14284     14.79264         0.906443     -0.918213      1.362705
O       7.94054      5.59855      6.66470         0.959075      0.908149     -0.418664
O       7.84807      5.73536     10.84439         1.569342      0.346584      0.141974
O       7.68176      9.49216      2.61469         0.537748      1.318993     -0.945962
O       7.87462      9.58943     14.82484        -4.280491      0.434063      0.128751
O       7.77468      9.80956      6.62900        -0.408294     -0.113260     -0.427274
O       7.79296      9.57992     10.68697         0.640730      0.356139      0.114637
O      11.48552      2.32825      2.14306         2.480243     -0.993051      1.739371
O      11.63591      2.06761     14.92570         0.211999     -0.336745      0.127587
O      11.58095     13.73402      2.53640         0.324268     -0.454813     -0.626058
O      11.70566     13.70606     14.81295        -0.666656     -0.343351      0.315521
O      11.65884      1.78016      6.45610        -0.623668     -0.198147      0.338697
O      11.64208     13.83801      6.76730        -2.215187      0.091482      0.063637
O      11.65142      1.70222     10.92014         0.385885      0.687930     -0.810928
O      11.59487     13.55727     10.90236        -1.030712     -0.055410     -0.350735
O      11.67648      5.62524      2.72793        -1.595427      1.358475     -1.463117
O      11.80306      5.94520     15.22629        -1.168048     -0.473860     -1.269359
O      11.82916      5.96217      6.82858        -0.616336     -0.855289     -1.531821
O      11.71831      5.89544     11.07227        -1.380370     -0.320239     -0.364961
O      11.63943      9.86512      2.35188        -0.030075     -0.537744      1.214036
O      11.55756      9.73649     14.87580         2.345968      0.431840      0.110440
O      11.65885      9.45939      6.82251        -0.933863      0.559007     -1.119828
O      11.73967      9.73674     10.75119        -3.869573     -0.712862      0.442526
O       1.87375      3.89143      2.29076         0.318653     -1.899850      0.536307
O       1.86629      3.67808     15.32752         0.672933      1.931864     -0.283496
O       2.08499     15.45065      2.87785        -1.307790      1.043049     -0.719034
O       1.68326      0.01292     14.96469         0.412642     -2.131916     -1.332858
O      13.60330      3.89748      2.69855         0.928450     -0.353355     -1.110068
O      13.69132      3.92641     15.23812        -0.168448      0.327322     -1.417694
O      13.76198     15.57296      2.18223        -1.201747     -0.931713      1.142748
O      13.61587     15.57500     15.13683         0.401369     -0.669121     -0.987910
O       1.96761      3.90067      6.67905        -0.178893      0.454992      0.664759
O       1.88415     15.56292      6.69446         0.286581     -0.073202     -0.307652
O      13.66550      3.83574      6.49916        -0.373600     -1.696840      0.680698
O      13.54420     15.53350      6.51456         0.721282      1.358966      0.335522
O       1.97685      3.78323     10.72506        -0.561950     -0.467387      0.246547
O       1.99973     15.54657     10.69357        -0.266665      0.953430     -0.703523
O      13.43208      3.92859     10.77581         1.073084     -2.318695      0.417428
O      13.48678     15.48009     10.85136         1.022167      2.867501     -0.174856
O       1.85381      7.82205      2.78422         0.886197      0.254841     -1.770489
O       1.96382      7.79391     14.98156         0.357330     -1.634488      0.572815
O      13.40718      7.67079      2.65998         0.341208      0.935083      0.223927
O      13.63778      7.85166     15.09685         0.385340      0.576813     -0.119463
O       2.01381      7.90511      6.64023        -0.417676     -3.960685      1.598987
O      13.59596      7.78042      6.78669         0.758493     -0.682893     -0.516925
O       2.13640      7.83948     10.77150        -1.258360     -0.565530      0.450531
O      13.70406      7.71977     11.14380        -0.202579      0.785891     -2.054049
O       2.28549     11.73982      2.58605        -1.292587     -0.334534     -1.045904
O       1.82638     11.64364     15.00334         0.478547      4.860172      0.651958
O      13.60975     11.71981      2.41651        -0.269352      0.007665      0.522505
O      13.58210     11.57629     15.21413         0.619665     -0.413091     -2.255607
O       1.90058     11.54935      6.70464         0.482109      2.722920      0.414122
O      13.24253     11.57314      6.72971         1.132261      0.371508     -0.246400
O       1.95730     11.71631     10.93507        -1.001105      0.659613      0.360873
O      13.44421     11.66489     10.84558         0.878803     -0.152680      0.124406
O       5.59940      3.75492      2.41023         1.251682      0.364958      0.119959
O       6.00128      3.94355     15.09825        -0.694342     -0.636892     -0.188298
O       5.93320     15.57996      2.78827         0.067933      0.384800     -0.704395
O       5.79167     15.53933     15.16961         0.236451     -0.629504     -0.387468
O       5.87490      3.97168      6.71186        -0.972286     -3.500581     -0.152888
O       5.89558     15.51116      6.51025         0.184516      1.848110      0.422115
O       5.95576      3.83995     10.93609        -0.844698     -0.944079     -0.628787
O       5.54069      0.07683     10.82346         0.686043     -0.780427     -0.316773
O       5.79710      7.63420      2.65599         0.458948      0.171917     -0.415104
O       5.74289      7.73993     15.20800        -0.081494      2.587379     -0.958231
O       5.94427      7.76488      6.79122        -0.070557      1.326529     -1.271474
O       5.68655      7.61135     10.89657         0.036348      2.759416     -0.159394
O       5.80941     11.70027      2.41743         0.336858     -0.175724     -0.122812
O       5.67339     11.71848     15.17817         0.509101     -1.438878     -0.912873
O       5.68893     11.65858      6.77372         0.082175     -0.379363      0.033694
O       5.83846     11.69282     11.03043         0.734948     -0.417402     -1.284371
O       9.57203      3.87384      2.36847         1.191735      2.223644     -0.589152
O       9.74087      3.94068     15.42499        -0.224075      0.349543     -1.962754
O       9.60148     15.59058      2.64770         1.874414     -0.443060     -1.348689
O       9.53017      0.07601     15.01084         0.554130     -2.199467     -0.993217
O      10.19289      3.93729      6.68669        -2.108987     -1.198074     -1.311033
O       9.34611      0.06845      6.66040         1.139139     -0.792898     -0.156793
O       9.81826      3.75902     10.93535        -0.196906      0.069403     -0.843392
O       9.70117     15.39739     11.03847        -0.246682      0.005841     -1.347725
O       9.93547      7.72525      2.55230        -1.292635     -0.697282     -0.577664
O       9.73045      7.98729     15.07112         0.253964     -2.480245     -0.368241
O       9.80263      7.60090      6.79372        -0.682813      1.296867     -1.182129
O       9.75458      7.69219     10.85993         0.184834      0.527170     -0.907839
O       9.69154     11.62318      2.56728        -0.608890      0.764253     -0.397267
O       9.52727     11.59722     14.78707         0.255208      1.267360      0.788308
O       9.95388     11.75798      6.54335        -0.858611     -0.600329      0.504383
O       9.67483     11.62141     10.93627         0.026814     -0.311098     -0.382008
