  # total energy = -7845.06639036 
CRSYTAL
PRIMVEC
    15.6080000000000005    0.0000000000000000    0.0000000000000000
     0.0000000000000000   15.6080000000000005    0.0000000000000000
     0.0000000000000000    0.0000000000000000   16.6239999999999988
PRESSURE
2.05425 2.39819 -2.87882 -0.362898 0.007702 -0.128844
PRIMCOORD
320 1
Pb       3.66917      4.06000      4.12338         1.170324     -0.289759      1.000333
Pb       3.80418      4.05957      0.22441         0.267293     -1.178912     -0.722731
Pb       3.83678      0.07547      4.32812        -0.100088      0.493574     -0.325598
Pb       3.83204     15.40426     16.33628        -0.093476      1.513653      1.770151
Pb      15.55877      3.97318      4.18613         0.099493      0.768793      0.100407
Pb       0.07404      3.74084     16.51771         0.299506      0.141424      0.252211
Pb       0.06394     15.46294      4.39960        -0.477528     -0.239506      0.043648
Pb       0.24064     15.39898      0.01196        -0.198176      0.367176     -0.211961
Pb       3.92732      3.80775      8.35462        -0.090670      0.621944     -0.889307
Pb       3.85062     15.56256      8.07373         0.530371      0.017286      0.495251
Pb      15.46324      4.07373      8.24666         0.852656      0.217989      0.446244
Pb       0.02089      0.29680      8.37137        -0.536187     -1.513777      0.302091
Pb       4.16057      3.82346     12.42294        -0.145676      0.438715      0.299258
Pb       3.88842     15.44272     12.34432         0.115087      1.812165      0.929918
Pb      15.52181      3.65259     12.48002         0.738220      1.691453      1.151807
Pb       0.15739      0.24119     12.43293        -1.752070     -1.301709      0.371576
Pb       3.68977      7.78283      4.30194         0.833931     -0.521552     -0.021089
Pb       3.69227      8.01622      0.11054         0.501404     -0.865499     -0.107703
Pb      15.41852      8.06283      4.16393        -0.230991     -1.202098      0.748317
Pb      15.53258      7.88521      0.24317         0.247247     -0.259249     -0.460830
Pb       3.68282      7.92411      8.34407         0.813793     -0.386918      0.323533
Pb      15.57774      7.51809      8.40524        -0.076672      0.444551      0.469662
Pb       3.96072      7.90565     12.50803         0.956218     -0.731540     -0.444757
Pb       0.17850      7.61218     12.73261        -0.871033     -0.800360     -0.463969
Pb       4.05605     11.57065      4.00031        -0.634304      0.064060      0.878661
Pb       3.98850     11.66353     16.44345        -0.312587     -0.200128      0.503843
Pb      15.42430     11.64667      4.51000        -0.301693      0.646150     -0.612089
Pb       0.03566     11.72631      0.10825        -0.186444      0.255599      0.034585
Pb       4.07322     11.70301      8.63408        -0.413488     -0.811517     -1.007587
Pb      15.60240     11.30921      8.50570         0.356410      0.193678      0.017382
Pb       3.48420     11.80412     12.34621         2.013093     -1.697413      0.330327
Pb      15.57317     11.67361     12.40662        -0.248805     -0.434122     -0.341824
Pb       7.71533      4.07859      4.38837         0.004756     -1.064994     -0.927113
Pb       7.86074      3.64246      0.13113         0.395727      1.208991     -0.407086
Pb       7.46085      0.20825      4.00030         0.183232     -1.804890      0.778895
Pb       7.82735      0.27676      0.16188        -0.441564     -1.816364     -0.297414
Pb       8.03626      3.90774      8.72236        -0.422833     -0.093099     -0.534888
Pb       7.85716      0.24996      8.33341        -1.695545     -1.653334      0.181566
Pb       7.89796      3.64285     12.68070         0.273286      0.557772     -0.034269
Pb       7.60558     15.26249     12.46855         0.315592      1.928233      1.128485
Pb       7.86115      7.72380      3.92099         0.220776      0.488694      0.826575
Pb       7.94059      7.88779     16.33913        -0.184738     -0.389164      0.358185
Pb       7.91244      7.62514      8.21006        -0.549112      1.111397      0.474152
Pb       7.64957      7.66592     12.59791        -0.109616     -0.153652     -0.178356
Pb       7.61888     11.87734      4.30333         1.327827     -0.279662     -0.514109
Pb       7.55081     11.30654     16.60134         0.539305      1.383503      0.378319
Pb       7.50877     11.92078      8.63414         0.632238     -0.244351     -0.648089
Pb       7.77928     12.02906     12.59110        -0.397561     -1.426316      0.349866
Pb      12.02868      4.11482      4.01331        -0.844502     -1.191781      1.091746
Pb      11.83418      3.80252      0.14841        -0.288952     -0.650503     -0.443304
Pb      11.63492      0.10905      3.88193         0.119733     -1.032122      1.330377
Pb      11.78151     15.53012      0.07393        -0.196606     -0.384393     -0.772276
Pb      11.56905      3.86108      8.26754         0.252367     -0.191013     -0.492823
Pb      11.36814      0.11574      8.27384         1.063728      0.159789      0.195890
Pb      11.81129      4.03414     12.64125        -1.398876     -0.923726      0.308849
Pb      11.74839      0.14197     12.29480         0.448623      0.376860      0.423773
Pb      11.79513      7.85587      3.98790         0.376634      0.727031      0.978193
Pb      11.64874      7.72978     16.51534        -0.404713      1.133403     -0.139029
Pb      11.36266      7.86954      8.11900         1.931320     -1.780595      0.771748
Pb      11.80525      7.83787     12.26306        -0.818142     -0.145245      1.362643
Pb      11.63867     11.82661      4.36309        -0.037651     -0.214908     -0.797700
Pb      11.64191     11.71613      0.28473        -0.538547      0.024609     -0.009386
Pb      11.92724     11.19222      8.20673        -0.516093      0.972647     -0.335129
Pb      11.52216     11.67483     12.30472         0.378825     -0.230169      1.165317
Ti       1.84913      1.85163      2.09982         2.105543      1.632710     -0.997298
Ti       2.02294      1.94409     14.62717         1.559463      0.395588      1.197763
Ti       1.99334     13.65343      2.31217        -0.185625     -0.015592     -0.719204
Ti       1.83376     13.56519     14.57551         1.751953      0.208017      1.081428
Ti      13.74032      1.75114      2.07648        -0.853560      1.885441     -0.857887
Ti      13.80307      1.90170     14.73577        -1.955680     -2.072619     -0.438839
Ti      13.61927     13.73501      2.18896         0.082047     -3.362670      0.512189
Ti      13.59445     13.56625     14.28908        -0.939169      1.383286      4.278094
Ti       1.90046      1.95112      6.30298         1.747695      0.443028     -1.188803
Ti       1.92026     13.47980      6.39137         1.012935      0.726799     -0.544140
Ti      13.73210      1.94564      6.31555        -2.742961     -0.060392     -0.693175
Ti      13.62610     13.81219      6.49484        -0.023970     -0.827264     -0.466813
Ti       1.90996      2.01469     10.56306         1.675537     -0.150397     -0.528751
Ti       1.84653     13.74954     10.40821        -1.786952     -0.656455     -0.347335
Ti      13.68480      2.03736     10.41977        -2.114377     -2.252057     -0.889317
Ti      13.69384     13.46545     10.36463         0.197600      1.802712      0.100830
Ti       1.90414      5.81048      2.24820        -0.269038      0.720913     -0.095426
Ti       2.04214      5.75359     14.79993         0.237936     -0.205707     -0.484861
Ti      13.63768      5.78294      2.06021         2.009815      1.099815      0.469462
Ti      13.73025      5.87931     14.87795         0.905954      1.348829     -0.896426
Ti       2.06656      6.07672      6.31763         0.300688     -5.351136      1.353351
Ti      13.66115      5.79771      6.49775        -0.585365      2.328748     -0.456393
Ti       1.80654      5.70318     10.60804         1.977225      1.191005      0.688825
Ti      13.53579      5.76489     10.69638         1.625491      1.483473     -1.233261
Ti       1.94207      9.87475      2.34975        -0.493353     -1.121599      0.080087
Ti       1.71541      9.71097     14.53044         0.819867      0.048984      0.610653
Ti      13.63392      9.89221      2.25838        -1.552285      0.936983      0.001994
Ti      13.54110      9.87883     14.91738         0.015504     -3.155653     -1.166650
Ti       2.01181      9.78950      6.31457         1.804664      0.110198      0.226385
Ti      13.73138      9.66139      6.37293        -0.743845     -1.707355     -1.009340
Ti       1.94368      9.49356     10.52504        -0.069700      0.092618     -1.581427
Ti      13.62036      9.64252     10.65975         1.938015     -0.088605      1.422906
Ti       5.62506      1.93010      2.11013        -0.677675     -0.710748     -0.275151
Ti       5.91701      2.09490     14.69409        -1.520021     -1.055920     -1.005288
Ti       5.84997     13.43542      2.31882         1.528911      1.417458     -1.681089
Ti       5.75523     13.75636     14.78994         3.420157     -0.302044      0.213690
Ti       5.89411      1.96100      6.18944        -1.985589      0.276001     -0.019094
Ti       5.85628     13.51174      6.40478        -0.041486      0.074089      1.278702
Ti       5.86065      1.89104     10.36225        -0.821913      0.368138      2.351453
Ti       5.54940     13.60980     10.70088         3.612382      0.642638     -0.338265
Ti       6.04623      5.70421      2.12850        -1.252656     -0.026620     -0.701357
Ti       5.87277      5.75694     14.84227         0.199655      1.193491     -1.753576
Ti       6.06479      5.77282      6.44420        -3.870168      0.038259     -0.044431
Ti       5.67907      5.87770     10.32925         1.074174     -0.374843      0.066169
Ti       5.87722      9.54845      2.22219        -0.197051      2.513668     -1.135553
Ti       5.69241      9.80124     14.43765         1.273971     -1.855665     -1.014044
Ti       5.98236      9.53609      6.21324        -1.065473      1.278496      3.478413
Ti       5.99935      9.67775     10.44120        -0.723250     -0.467422      0.397483
Ti       9.70710      1.93906      2.32523         0.783599      0.632628     -1.311508
Ti       9.89815      1.75890     14.81961         0.691150      0.957326     -2.118564
Ti       9.76803     13.65249      1.92900        -2.390633     -1.938763     -0.254224
Ti       9.84996     13.64458     14.52015        -2.280200     -0.326626      1.921567
Ti       9.70340      1.66835      6.16593         0.908498      4.155215      4.640722
Ti       9.77438     13.60415      6.24162        -0.984878     -0.725569     -1.444860
Ti       9.66859      1.96067     10.63695         0.905737      0.027229      1.001532
Ti       9.69871     13.77156     10.51169         0.258420     -0.598564     -0.573256
Ti       9.91076      5.86392      2.17061        -1.593127     -0.443424     -1.397489
Ti       9.83827      5.68204     14.70112        -1.491035     -0.526939     -1.163324
Ti       9.71930      5.71753      6.18367         2.875182     -0.103533      0.585555
Ti       9.71261      5.84173     10.52805        -1.593024      0.165475      0.882013
Ti       9.74510      9.73909      2.38538        -0.188733      2.061719     -1.966685
Ti       9.67666      9.77440     14.50137         0.904786     -0.475148     -0.178589
Ti       9.65666      9.74444      6.41739         0.101526      0.565690     -1.127360
Ti       9.74698      9.70664     10.39848        -1.714573     -0.234686      0.095439
O       2.07115      2.07231      0.05374        -1.151557     -0.239947      2.612148
O       1.74255      1.90354     12.79076        -0.067447      0.869085     -1.005548
O       2.04458     13.96380      0.15067        -1.390398     -1.998413      0.967139
O       2.07278     13.41036     12.75931        -0.605073      1.492723      0.422264
O      13.59502      1.86617      0.18670        -0.112100     -0.940715      2.712939
O      13.74178      2.06874     12.94269         0.195479      0.233822     -2.047769
O      13.68706     13.58732      0.40671         0.939773      0.140177     -1.446719
O      13.58982     13.30463     12.63879         0.288723      0.064357     -1.744740
O       2.08407      1.77944      4.31894        -1.024437      0.082245      1.932655
O       2.11387     13.62222      4.38912        -0.263439      0.132183     -0.468878
O      13.83250      1.88348      4.47299        -1.105526     -0.006455      0.009427
O      13.56641     13.71083      4.22718        -0.081761      0.260473      1.360337
O       1.84934      1.57765      8.80334         0.227867      1.330769     -0.889926
O       1.79648     13.81943      8.64159         0.108822     -0.674006     -0.597989
O      13.74352      1.87257      8.61750         0.282183      0.119946     -0.381933
O      14.05457     13.45625      8.57758        -1.175936      0.600443     -0.749092
O       2.13279      5.81155      0.07546        -1.102919     -0.369368      2.204975
O       1.67735      5.65583     12.51894         0.407861      1.446233      0.775562
O      13.72277      5.74270      0.10506        -0.513481      0.196112      1.551305
O      13.74097      6.02892     12.56274        -0.155706     -1.414909      0.320482
O       1.75090      5.55129      4.46089         0.136555      0.440893     -1.389403
O      13.69967      5.76380      4.29931         0.077417     -0.923291     -0.700001
O       2.01900      5.95615      8.29124        -0.464982     -0.213103      0.038815
O      13.65546      6.20456      8.39589         0.438525     -1.162161      1.075385
O       1.87512      9.57554      0.49463        -0.215932      0.702333      1.078785
O       1.97861      9.82870     12.61415        -0.149618     -1.211185      1.251519
O      13.81794      9.60699      0.31345        -0.084487      0.928577      0.156643
O      13.72278     10.16483     12.58225        -0.784563     -1.704283     -0.492486
O       2.06482     10.04509      4.38731         0.053812     -0.641254     -0.341440
O      13.51056      9.76878      4.36118         0.446575     -0.321152     -0.267830
O       1.93656      9.52597      8.44151        -0.361329      0.428368      0.356617
O      13.64094      9.47666      8.26182         0.698505      0.954023      1.669601
O       5.87754      2.13620      0.26032         0.169365     -0.807633      0.378090
O       5.69907      2.10890     12.74804         0.823330     -0.238955      1.632604
O       6.32285     13.56889     16.59803        -1.613957     -0.083730      0.324086
O       5.41748     13.58913     12.70364         1.114762      0.730352     -1.006430
O       5.69358      1.90851      4.29433         0.377284     -0.668793      1.376850
O       5.74291     13.61487      4.21904         0.022670     -0.277781      0.904469
O       5.90186      2.08985      8.62316         0.076240     -0.227454     -0.838048
O       5.68288     13.57409      8.44594         0.698333     -0.822942      0.394800
O       5.71444      5.59396      0.38761         0.582113      0.867286      1.075217
O       5.82356      5.78970     12.99620         0.414847     -0.323350      0.096205
O       6.14552      5.73414      4.62971         0.498300      0.497800     -1.480081
O       5.61666      5.86486      8.49044         0.859335     -0.626874     -0.021174
O       5.53464      9.56588      0.38112         1.453169      1.027965      0.180670
O       5.90416      9.59192     12.56050        -1.056196      0.397840      1.205114
O       6.25497      9.63754      4.55035        -0.989354     -0.118603     -2.655538
O       5.84733      9.85156      8.65501         0.238516      0.254263     -0.424211
O       9.77688      1.89918      0.20649        -0.098846     -0.088048      0.730671
O       9.83700      1.81790     12.78859        -0.142636     -0.084839     -0.599462
O       9.45333     13.71246      0.12541         0.297084     -0.911310      0.135123
O       9.60251     13.69230     12.71506         1.178257     -0.161048     -1.933803
O       9.74880      1.60803      4.53461        -0.178522      0.331417     -5.903467
O       9.81946     13.62472      4.36874         0.201967     -0.095136      2.101453
O       9.43295      1.77102      8.63559         1.166798      1.199884      1.124491
O       9.43503     13.55990      8.75745         0.817283      0.542189      0.142764
O       9.86524      5.84427      0.35478         1.103097     -0.013474     -0.297743
O       9.74693      5.59698     12.84554         0.431900      0.761731     -0.030189
O       9.78391      5.80201      4.37021        -0.112067     -0.417439      0.750462
O       9.92545      5.64287      8.72436        -1.252455      0.073428      0.225814
O       9.62861      9.57117      0.24726         0.092213      0.274231      0.730122
O       9.76106      9.70634     12.71710         0.437989     -0.451641     -0.936213
O      10.16690      9.72044      4.66737        -1.456799     -0.193632     -2.629511
O       9.71945      9.53362      8.43934         0.769037      0.894440      1.691295
O       3.77360      1.95284      2.39941         1.578826     -0.108767     -0.674544
O       3.83099      2.12285     14.82064         0.094378     -1.181607     -0.519519
O       3.97734     13.42267      2.02514        -0.810921      0.413038      0.712588
O       3.94895     13.48036     14.93087        -1.925367      0.235580     -0.182153
O      15.58859      1.91376      2.29998        -0.789547     -0.194060     -0.303315
O       0.00220      1.77498     15.05652         1.135618     -0.052271     -0.480481
O       0.08649     13.48732      2.33113         0.852980      0.987374     -0.235498
O       0.07255     13.47679     14.59109        -2.412900      0.022581      0.549133
O       3.77777      1.83079      6.60872         0.592915     -0.546520     -0.123425
O       3.87297     13.43113      6.60781        -0.096198      0.556410     -0.562938
O      15.53487      1.70507      6.31589         2.146490      0.152243      1.098797
O      15.44158     13.60739      6.12395         2.213396      0.409485      0.345961
O       3.88277      1.89155     10.77240        -0.506284      0.460161     -0.463504
O       3.79460     13.57289     10.70385        -2.402116      0.556527     -0.832878
O      15.50607      2.24812     10.73489         1.331501     -1.707028     -0.076062
O       0.04060     13.63116     10.80201        -0.016494      0.215784      0.196307
O       4.03987      6.19692      2.56922         0.324587     -2.121921     -0.505012
O       3.91751      5.94914     14.88734        -1.284454      0.198943     -0.294210
O      15.60703      5.61776      2.00052         0.758058      0.208061      0.920387
O      15.60365      5.87147     14.74831        -0.105751     -0.436266      0.167244
O       3.91498      5.79778      6.17919        -0.539176      0.332245      0.375198
O      15.45627      5.64025      6.40208         2.719464     -0.351191      0.489394
O       3.89536      5.81656     10.61161        -0.475421      0.345728      0.427540
O       0.07231      5.86986     10.35422        -2.982882     -0.090860     -0.379664
O       4.09118      9.43660      2.76874        -1.185810      1.276892     -1.110105
O       3.92349      9.51479     15.01920        -1.368587      1.174596     -1.657449
O      15.47820      9.92058      2.61538         1.869125     -0.515421     -0.847960
O      15.50775      9.88972     14.66153         1.257909     -0.041566      0.176378
O       3.89716      9.53527      6.46198         1.174782      0.684404     -0.333709
O       0.20008      9.85321      6.13385        -2.927510     -0.839946      0.533349
O       3.95457      9.43083     10.35935        -0.820264      0.616959      1.413804
O       0.08205      9.47106     10.53016        -0.336683      1.337955     -0.191335
O       7.82054      1.66767      2.41787         0.693406      1.682105     -0.863989
O       7.87047      1.95133     14.69545        -1.914909     -0.177399      0.896932
O       7.79180     13.30212      2.41482        -0.114128      1.261436     -0.045213
O       7.68654     13.71642     14.33438        -0.372407     -0.490067     -0.111908
O       7.65002      2.02779      6.27474         1.638815     -0.177690      0.252413
O       7.84767     13.48624      6.43128        -1.084883     -0.077247     -0.073941
O       7.71999      1.86903     10.80847         0.574593      0.457963     -0.506524
O       7.68958     13.69588     10.83245         0.971129     -0.792718     -0.534019
O       8.06030      5.62124      2.09781        -2.658692      0.076297      1.549248
O       7.81359      5.42632     15.23534        -0.453995      1.590624     -0.859435
O       7.93035      5.50628      6.62589        -0.252838      0.231716      0.286549
O       7.71731      5.69140     10.68166         2.130679      0.402006     -0.592697
O       7.86182      9.78626      2.63634         1.482988      0.703280     -0.379272
O       7.76017      9.81834     14.68893        -0.408784     -0.564696      0.560030
O       7.84492      9.56893      6.70149        -0.466481      0.438548     -0.353436
O       7.85291      9.90275     10.56190         0.354123     -0.419890     -0.202812
O      11.57000      1.92642      2.35811         2.221733     -1.380905      0.248313
O      11.79102      1.81241     14.70427        -1.392769      0.608473      1.070659
O      11.59772     13.53661      1.84455         2.205792      0.810073      0.621461
O      11.55295     13.42814     14.78829         3.473953      0.486502     -0.112361
O      11.61519      1.72335      6.62876         0.358462     -0.226232     -0.233097
O      11.72382     13.76826      6.47619        -0.966517     -0.399242      0.620310
O      11.69268      2.02295     10.57080         0.050183     -0.365460      0.388941
O      11.82765     13.63549     10.69006        -0.944537     -0.231083     -0.543561
O      11.80613      5.82571      2.34526        -0.453692     -0.155877     -0.176058
O      11.80618      5.58627     14.89076        -0.574578      0.330448     -0.450512
O      11.75903      5.72200      6.77124        -2.462242      0.341523     -1.664240
O      11.67748      5.82733     10.74485         0.463033      0.141240      0.341870
O      11.66964      9.71556      2.27074         1.261255     -0.808528      0.174524
O      11.76550      9.43822     14.82694        -1.104725      0.431770      0.028926
O      11.77442      9.36590      6.44658         0.259884      1.300235      1.064460
O      11.75450      9.47421     10.58071         0.059990      1.190340     -0.450305
O       2.08542      3.83100      2.48145        -0.889134      1.506364     -1.120110
O       2.03330      3.93816     14.63450        -1.100532      0.298794      0.648727
O       2.06463      0.10278      2.15393        -0.579370     -3.073887      0.680361
O       1.94826      0.00511     14.85588         0.088982     -1.515712     -1.070922
O      13.44037      3.72920      2.25433         0.881807      0.585988     -0.370009
O      13.81566      3.64901     15.09378        -0.521936      3.415047     -0.586457
O      13.40683     15.52083      2.35406         0.770356      2.650673     -0.458978
O      13.39807     15.42601     14.56448         1.191129     -1.486922      0.191770
O       2.04429      3.70072      6.71575        -1.134841     -0.512038     -0.584441
O       2.06706     15.40800      6.58878        -1.053216      0.510935     -0.860374
O      13.61927      3.86581      6.67481        -0.082210     -1.878167     -0.420709
O      13.58946      0.00639      6.67338         0.520034     -0.354206     -0.070473
O       1.80979      3.88917     10.58143         0.924811     -1.862650     -0.442098
O       1.83474      0.08053     10.89594         0.245171     -1.629236     -0.264364
O      13.68160      3.97408     10.32723        -0.314111      0.875959      1.075447
O      13.75048      0.10866     10.87701         0.189463     -0.038941     -0.576938
O       1.95060      7.70008      2.62333        -0.976236     -0.128600     -0.454407
O       1.65824      7.91566     15.17963         0.678975      0.231293     -2.114522
O      13.64075      7.70038      2.31026         0.544610     -0.188255     -0.074780
O      13.68364      7.82668     14.87639         0.545078     -2.327209      0.108677
O       2.05554      7.75726      6.20869        -1.264545      3.305285     -0.253539
O      13.91290      7.71172      6.18006        -0.156646      1.000355     -0.027176
O       1.95065      7.60520     10.54012         0.448533      2.202615      0.744231
O      13.83899      7.85371     10.82011        -0.818038     -0.830943     -0.234842
O       2.02637     11.66450      2.25972         0.395295      0.789756     -0.199413
O       1.98990     11.58663     15.06888        -0.131529      0.251277     -0.583149
O      13.48979     11.78491      2.45909         0.215960     -1.988267     -0.743653
O      13.45729     11.56068     15.05701         0.582851      4.135630     -0.261408
O       1.96321     11.63102      6.62773        -0.285901      1.378897      0.358761
O      13.71757     11.60303      6.54623        -0.679928      0.035483     -0.105868
O       1.93448     11.61440     10.58554         0.135631      0.295078     -0.374814
O      13.92684     11.65638     10.58717        -0.489773     -0.867109     -1.289597
O       5.86816      3.76466      2.48740         0.604659      2.701203     -0.037020
O       5.55971      3.90149     15.09927         0.975620     -0.518335     -1.050867
O       5.91914      0.05020      2.15829        -0.395354     -1.285123      0.517233
O       5.60286      0.07165     14.83240         0.899211     -0.021377     -0.693278
O       5.62303      3.85297      6.46630         0.688032     -0.254254      0.372977
O       5.86126     15.59751      6.59611        -0.433165     -0.284127     -0.829888
O       5.82201      4.01159     10.72857        -0.209903     -1.608976     -0.594405
O       5.83136     15.54147     10.57212        -0.779637      0.386084      0.451518
O       6.38088      7.90939      2.19138        -0.131026     -5.111744      0.388892
O       5.82985      7.79614     14.63683         1.155056     -0.104694      0.764699
O       5.92609      7.72152      6.62174         0.753249     -1.166648     -0.130846
O       6.08854      7.76910     10.71921        -0.528847     -0.214606     -0.223226
O       5.95755     11.55769      2.23340        -0.942113      0.304351      0.649467
O       5.83118     11.63052     14.67856        -0.399460     -0.205434      0.554827
O       5.94530     11.57761      6.44014        -0.364229      1.093681     -0.190661
O       5.80468     11.80533     10.71655        -0.216306     -1.288457     -0.837306
O       9.99972      3.73474      2.42777        -1.185378      1.242615     -0.012141
O       9.63873      3.77927     14.68925         1.368439     -0.091565      1.016620
O       9.96680     15.41453      2.21693        -0.874372      2.868942      0.585455
O       9.82179     15.45839     14.95568        -0.104451      1.436896     -0.350459
O       9.88956      3.62269      6.66462        -0.871769      2.002851     -0.760076
O       9.38928     15.56467      6.60004         1.037119     -2.264658      0.565521
O       9.74693      3.81208     10.94671        -0.256368      0.314597     -1.304652
O       9.84247      0.02962     10.63341        -0.236098     -1.439312      0.093063
O       9.73159      7.82995      2.36747         0.503571     -1.512505      0.573599
O       9.59269      7.67709     14.62080         0.271057     -0.870619      1.186516
O       9.58737      7.72223      6.51007         0.474163     -2.584148     -0.038697
O       9.70985      7.80335     10.65213        -0.007118     -1.602942      0.246903
O      10.07152     11.71303      2.30295        -1.098009     -1.696288      0.430980
O       9.96066     11.55408     14.59325        -1.090755      1.004645      0.466444
O       9.87325     11.61789      6.47163         0.369296      1.011970      0.470341
O       9.89725     11.48494     10.74599        -0.202952      2.050104     -0.823572
