  # total energy = -7824.88261532 
CRSYTAL
PRIMVEC
    15.6080000000000005    0.0000000000000000    0.0000000000000000
     0.0000000000000000   15.6080000000000005    0.0000000000000000
     0.0000000000000000    0.0000000000000000   16.6239999999999988
PRESSURE
5.18786 5.65152 0.499123 0.125054 -0.111643 0.185767
PRIMCOORD
320 1
Pb       4.32331      4.05663      4.28308        -0.153454      0.815326      1.032539
Pb       4.12186      3.78436      0.10779         0.108988      0.191630     -1.129968
Pb       4.33751      0.14436      4.30034        -0.798410     -0.268477      0.608458
Pb       3.84533      0.09941      0.60154         0.876547      1.127888     -3.600709
Pb       0.51745      4.07964      4.29120        -1.556449     -1.952586     -0.617381
Pb       0.09698      3.93917      0.41718        -0.566189     -2.265069     -1.220292
Pb      15.28335     15.60634      4.29164         1.503717      0.309979      0.912714
Pb       0.16606      0.02809      0.12570        -0.518649     -0.222062     -1.184156
Pb       3.99634      3.66376      8.24555        -0.108676      1.202548     -0.782823
Pb       3.93336      0.03989      8.91278         0.054777     -1.118441     -1.496569
Pb      15.43451      3.78505      8.18929         0.242815      0.722568      0.172407
Pb      15.00512     15.42235      7.93904         0.730561      0.768715     -0.126824
Pb       3.73117      3.86719     12.25636        -0.121036      0.882797      1.506399
Pb       3.66329      0.50420     12.43854         2.589972     -2.464547      0.595669
Pb       0.27057      3.79589     12.65379         0.410637      0.803095     -0.716857
Pb      15.17018     15.32996     11.90586         0.770925      0.279478      0.881494
Pb       3.84874      8.27896      4.19356         0.710682     -1.664540      1.615657
Pb       3.93273      8.00467      0.12129        -1.200587      0.449712     -0.604130
Pb       0.25923      7.62807      4.22981        -2.188973      1.085895     -1.344981
Pb       0.18178      8.19175     16.56166         0.021154      0.341247      0.523393
Pb       4.19276      7.85456      9.02293        -0.196913      0.186023     -2.564969
Pb       0.06686      7.75879      8.72496        -0.402528     -0.294965     -0.356265
Pb       3.75311      7.37116     13.00623         0.115101      1.222755     -1.480777
Pb       0.09476      7.42822     12.75607        -0.238101     -0.032012     -0.978997
Pb       3.56255     12.16500      4.93202         0.610496     -1.163516     -1.544099
Pb       3.28276     12.07100      0.48767         0.514066     -2.425688     -2.679777
Pb       0.14529     11.63120      4.37512        -0.595596      0.063087      0.539993
Pb      15.40614     11.81603     16.32722         0.156765     -0.669532      1.413985
Pb       3.58414     11.49709      8.59207         2.190865      0.788355     -0.922702
Pb      15.30116     11.50182      8.20888         0.542904     -0.288540     -0.511641
Pb       4.30924     11.86766     12.73371        -1.456978     -0.842107     -1.918887
Pb      15.11969     11.91898     12.44784         1.280065     -0.541057     -0.329484
Pb       7.97094      4.00182      3.64680         0.014760      0.203328      1.935156
Pb       7.77583      3.91483     16.45690         0.134226     -0.716134     -0.522284
Pb       8.43291     15.57357      4.11797        -1.505623      0.060064     -0.073468
Pb       7.58593     15.33171     16.59055         0.703903      1.043782     -0.230880
Pb       7.49923      4.02866      8.11912         0.620152      0.443356      0.180130
Pb       7.65363      0.01277      8.40036         0.126643      0.364145      0.003628
Pb       7.97683      3.93560     12.51027         0.309804     -0.154334     -0.417622
Pb       8.08256      0.19589     12.98535        -0.308985      0.155196     -0.939228
Pb       7.52591      7.87859      4.05753         0.752109     -0.962436      0.443555
Pb       7.47853      7.90388      0.27963         1.806298      0.307951     -0.653427
Pb       7.73935      8.04639      8.34574         0.735908     -0.281573     -0.645217
Pb       7.58702      7.90753     12.75615         0.084389      0.167256     -1.769116
Pb       7.63351     11.89841      4.07514        -0.097120      0.177691      0.117750
Pb       7.92057     11.97019      0.03574         0.470260     -1.073927      0.285980
Pb       7.60203     11.43623      8.11523         0.176411      0.583721      0.598566
Pb       8.07203     11.52038     12.93443        -0.644937      0.793458     -1.614108
Pb      11.49414      3.65768      3.89790        -0.190939      0.928924      0.226238
Pb      11.99291      3.77156     16.55444        -0.571480     -1.363838      0.686528
Pb      11.83541     15.13573      4.43023         0.077427      0.307489     -1.038015
Pb      12.37319     15.60507      0.49190        -1.139239     -1.703629     -1.712760
Pb      11.59595      4.14768      8.66339        -0.316011     -0.759985     -0.110234
Pb      11.62152      0.38296      8.11887        -0.381108     -0.482284      0.032119
Pb      11.59001      3.35233     12.64065         1.424065      1.949089     -1.054533
Pb      11.47688     15.07625     12.12116         1.413383      1.319975      1.315954
Pb      11.09892      7.46397      4.26205         1.511701      0.321402     -0.027476
Pb      12.18971      7.87859      0.12918        -1.960334     -0.979242     -1.303935
Pb      12.08300      7.45184      9.05282        -1.109709      1.644808     -1.250826
Pb      11.48714      7.58717     12.85575         0.512543      1.196358     -2.407720
Pb      11.34472     11.38402      4.00716         0.819550      2.621632      1.329448
Pb      11.91510     11.46383     16.29589        -0.452806      0.227924      0.783125
Pb      11.04585     11.57343      8.30255         2.689837     -1.773476     -0.076220
Pb      11.56332     11.50385     12.24829         0.738237      0.104085     -0.227139
Ti       2.03971      2.18909      2.06139        -1.241355     -1.605267      0.947542
Ti       2.02770      1.96673     14.53532         1.487093     -0.780044      1.569007
Ti       1.86256     13.83965      2.17936        -2.640152     -0.601284      2.672487
Ti       1.98210     13.66977     14.47604        -1.452003      0.649218     -0.093092
Ti      13.56455      1.90601      2.42029         1.043973      0.511055     -0.603622
Ti      13.96662      1.85543     14.26991        -4.234892     -3.805972     -0.737571
Ti      13.83446     13.30276      2.48106        -2.663960     -0.576166     -1.522202
Ti      13.78463     13.66188     14.66498        -2.978440      1.684920      1.612741
Ti       2.14507      1.85245      6.48897         0.211755      1.393454     -3.336361
Ti       1.73755     13.87795      6.49406        -0.422704     -0.951795     -1.001719
Ti      13.53430      2.38159      6.25681        -0.074293     -1.549366     -0.830865
Ti      13.49550     13.20863      6.16117        -0.181912     -0.671926      1.578060
Ti       1.69187      1.69337     10.31882        -2.159019      0.787239      0.122165
Ti       1.89162     13.46485     10.28383        -0.040801     -0.609849      0.981374
Ti      13.49344      1.89595     10.18561         0.996988     -1.440952      3.732833
Ti      13.62024     13.40907      9.96013        -1.490627     -1.145398     -1.202709
Ti       2.11521      5.88236      1.91199         0.314243      1.412352      2.057437
Ti       1.84787      5.85778     14.85156         1.895465     -1.012244     -2.627555
Ti      13.80937      5.60849      1.81607        -2.110656      1.809244      1.980817
Ti      13.67246      5.53266     14.45439         0.273307      1.461821     -0.720189
Ti       1.72858      5.87361      6.13072         3.812859     -1.480489      1.608234
Ti      13.31207      6.03932      6.05332         1.569360     -1.560471      0.008365
Ti       1.86257      5.66886     10.19533         1.628925      0.332010      0.722799
Ti      13.68733      5.51993     10.62981        -0.211371      0.097623     -0.260262
Ti       1.89997      9.90407      2.40229        -2.383696     -0.160565     -2.373798
Ti       1.92141      9.92322     14.11684         0.839949     -0.826388      0.390577
Ti      13.64074      9.35945      2.23010         0.744835      2.643118      2.663600
Ti      13.73917      9.47936     14.29721        -1.505731      1.203179     -0.343510
Ti       1.76643      9.55868      6.47325         0.666289      1.036638     -2.006476
Ti      13.38982      9.50986      6.15026         0.141322      4.136902     -1.821534
Ti       2.11328      9.62209     10.42257         0.266633      0.876648      0.697604
Ti      13.81781      9.71372     10.29299        -1.442092     -0.065282     -0.434681
Ti       5.83346      1.92782      2.15706         2.300145      0.528050      0.473296
Ti       6.00414      2.15921     14.42691        -0.759718     -0.935187     -1.695389
Ti       5.69119     13.71506      2.00769         3.039278      0.078350      1.783378
Ti       5.78984     13.84297     14.32149        -0.802835      0.965070      0.048667
Ti       6.12388      1.90424      6.21024        -0.590641      1.543806     -1.120099
Ti       5.88999     13.81909      6.25098        -0.084893     -0.293559      0.390728
Ti       5.75794      2.16011     10.33597         4.696616     -2.982818      0.441969
Ti       6.00163     13.67905     10.27755         0.375643     -0.867773     -0.952452
Ti       5.94886      5.81972      1.90017         0.123915      0.225854      2.100716
Ti       5.99959      5.97412     14.49294        -0.895880     -1.729385      0.237487
Ti       5.66685      6.19861      6.29009        -1.605135     -0.007372     -1.390686
Ti       5.63072      5.81435     10.52169         2.448484      1.419028     -0.741965
Ti       5.64117      9.99311      1.86800         2.472931      0.209099      0.459323
Ti       5.79415      9.92793     14.68409        -0.594631      0.260592     -2.560123
Ti       5.75497      9.87552      6.06137        -0.149727      0.272917      1.202961
Ti       6.03208      9.93035     10.39480        -0.175261     -0.407989      0.861415
Ti       9.68666      1.71132      1.78531         1.115517      0.201993      1.280406
Ti      10.01952      1.85816     14.80053        -1.144315     -0.780511     -1.143676
Ti       9.80066     13.64253      1.83283         1.098260     -1.581086      0.671144
Ti      10.03031     13.56902     14.56906         1.728399      3.412690      2.947317
Ti       9.85171      2.04750      6.16512        -2.327676     -0.082233     -0.427153
Ti       9.68958     13.47981      6.13760         0.386955     -0.150009     -1.352059
Ti       9.59006      2.00303     10.25972         0.310229      0.534588     -0.074206
Ti       9.85068     13.76208      9.88918        -1.518502     -2.837885      0.830555
Ti       9.89245      5.80819      1.65915         0.535307      4.457039     -0.478194
Ti       9.89329      5.67290     14.50956        -1.302685     -1.154299     -0.204310
Ti       9.64546      5.83242      6.49620        -1.273637      1.242202     -1.089682
Ti       9.39418      5.98088     10.31937         0.623066     -0.834177      2.030348
Ti       9.82082      9.65289      2.11242        -0.841242      0.894543     -1.201059
Ti       9.62053      9.47848     14.66440         2.163159      1.424770      1.736379
Ti       9.69786      9.71550      6.08581        -1.692189     -2.228547     -0.019186
Ti       9.80300      9.79053     10.58708        -0.887841     -1.003258     -2.695480
O       2.11113      2.22006      0.19416        -0.505340     -0.375962      0.085070
O       1.82851      1.51324     12.77000        -1.181156      1.566125     -0.918236
O       1.47590     13.64052      0.36148         1.327528     -0.646477      0.438212
O       1.61479     13.49331     12.76600         0.368645      0.327669     -0.641026
O      13.60496      1.95056      0.59927         0.361207      0.507131     -1.115237
O      13.36939      1.34819     12.38296         1.274958      1.435655      1.364238
O      13.79385     13.54112      0.12192         0.092214      0.090863      1.325720
O      13.59175     13.58028     12.85703         0.169699     -0.045944     -2.026564
O       1.82212      1.64134      4.56681         0.778698      1.134494      0.841721
O       1.82530     13.79365      4.47142         0.331208      0.096983      0.347793
O      13.47173      2.14793      4.40381         0.163144      0.034576     -0.819658
O      13.84427     13.16397      4.40695        -0.158428      1.282710     -2.958384
O       1.96544      1.93258      8.59322         0.404278      0.016025     -0.993358
O       1.56655     13.83805      8.59653         1.159643      0.051733     -2.673118
O      13.59287      1.91951      8.49400        -0.849813     -0.147278     -4.354157
O      13.37657     13.10143      8.16780         0.993455      1.071142      0.458473
O       1.82897      5.35254     16.59883         0.549713      1.394524      1.293973
O       2.06617      5.69514     12.65725        -0.898431      0.541856      1.043895
O      13.57253      5.54733     16.55089         1.087010      0.735998      0.461789
O      13.79115      5.66124     12.54613         0.459004     -0.104792      0.326993
O       1.86132      5.96368      4.01045         0.122014     -0.440238     -0.506519
O      13.39893      5.81340      4.32226        -0.050563      0.374291      0.383065
O       1.98059      5.71497      8.36453        -0.759992     -0.137826      0.506390
O      13.89613      5.72317      8.70888        -0.285304      0.755980      0.592940
O       2.04616      9.74522      0.49720        -0.078855      0.346355     -0.021966
O       2.01832      9.71540     12.23273        -0.784080      0.247054      2.698862
O      13.59149      9.57067      0.18370         0.920090      0.435465      0.535189
O      13.65712      9.82007     12.47038         0.484758     -0.150313      0.779717
O       1.95429      9.69457      4.26920        -0.316702     -0.275259     -0.441538
O      13.44168      9.12819      4.28511         0.688284      1.351498     -0.424365
O       2.32933      9.49108      8.11532        -1.059049     -0.146033      1.924371
O      13.48351      9.83531      8.29770         0.878993     -1.125936      2.321374
O       5.96968      2.11367      0.34408        -0.002763     -0.008996     -1.252998
O       6.00697      2.25786     12.58341        -0.360791     -0.510254     -0.048512
O       5.87870     13.86458      0.14677        -0.382767     -0.413654      0.194533
O       5.57073     13.84146     12.50526         1.043373     -0.263584     -0.775458
O       6.09085      1.88557      4.19657        -0.826981      0.325184      1.088681
O       5.91481     13.86599      4.16022        -0.438748     -0.430875      1.096427
O       5.89378      2.19512      8.43404        -0.126893     -0.652079      0.436783
O       6.02154     13.60485      8.31772        -1.138349      0.829883     -0.453627
O       6.10510      5.88097      0.09257        -0.446785      0.180845     -0.340138
O       5.91823      6.26523     12.61809        -0.932202     -2.156250      0.173768
O       5.91907      6.04915      4.27952        -0.073277      0.233444      0.030843
O       5.33221      5.70511      8.61815         0.884942      0.000551     -0.386408
O       5.55065     10.10938     16.55054         0.345909     -0.941269      1.930178
O       6.29956      9.96356     12.73949        -2.001584     -0.197507     -0.098080
O       5.88366      9.81320      4.27857         0.269854     -0.155240     -1.280740
O       5.84273      9.76609      8.53267         0.584577      0.171352     -0.033355
O       9.78667      2.09045      0.01363        -0.322645     -0.288120      0.369044
O      10.15444      1.86361     12.52626        -2.569654     -1.512450     -0.712011
O       9.67683     13.94381      0.00204        -0.621931     -1.188045      0.454728
O       9.72515     13.56438     12.86181         0.199858      0.310890     -2.941375
O       9.51169      2.19227      4.13486         1.434385     -0.568397      1.397666
O       9.80219     13.40234      4.11320        -1.387426      0.590011      1.670767
O       9.56906      1.89530      8.38535         1.220857     -0.758064     -0.695729
O       9.97830     13.72187      8.09340        -0.171022      0.729161     -0.501927
O       9.70107      5.95432     16.35421         0.450378     -0.521499      0.776684
O       9.97723      5.49456     12.15806        -1.265409      0.504186      2.450562
O       9.47535      5.89435      4.46669         0.501559     -0.568249      1.528498
O       9.28627      5.99824      8.43872         1.685384     -0.953729     -1.486121
O      10.01796      9.58944     16.42794        -0.144220     -0.589866      0.855724
O       9.92537      9.74637     12.56081        -0.843255      0.942914      0.930741
O       9.40030      9.78034      4.14432         0.698956      0.431982     -0.233420
O       9.52019      9.59358      8.64646         0.657113      0.421128     -0.239171
O       3.98487      2.20695      2.08687        -0.138212     -1.395599      0.717012
O       3.97454      2.14253     14.40059        -0.889288     -1.268373      0.416093
O       3.87167     13.79984      1.89792        -0.015295     -1.133277      1.295098
O       3.74869     13.36533     14.40656         0.896724      1.584810      1.154801
O       0.13762      1.99274      2.30304         0.057024      0.364892     -0.149451
O       0.03113      1.59226     14.55629         1.839193      1.122197      0.443100
O      15.57856     13.86044      2.56554         1.780786      0.720103     -0.545359
O      15.52470     13.82976     14.79531         2.463230     -0.650803      0.062210
O       4.05503      1.92539      6.64564        -2.580249     -0.326028     -0.818946
O       3.93187     13.96550      6.26883        -0.401613     -0.719091      0.600801
O      15.20165      1.95860      6.73763         2.339999     -0.317741     -0.857706
O      15.47879     13.60143      6.32109         1.214163      0.449730      0.842964
O       4.01609      2.15413     10.62611        -2.945933     -1.710055     -0.235262
O       3.76787     13.33605     10.47736         0.735814      1.327509     -0.752543
O      15.42407      1.69464     10.24608         2.673618     -0.719657      1.001427
O      15.57685     13.36511     10.51991        -1.784037      0.584492      0.480744
O       4.04217      6.00538      1.94638        -1.848980      0.567179     -0.419754
O       3.94927      5.91331     14.82060        -0.638343      0.488197      0.060948
O       0.01517      5.35331      2.20558        -0.400377      1.301710     -1.015848
O       0.01594      5.49161     14.46265         1.002355      1.260980      0.601764
O       3.81742      5.82098      5.77016        -0.056717     -0.069416      1.526419
O      15.56844      5.72010      6.23997        -1.414793      0.788512     -0.299029
O       3.81743      5.93112     10.78125        -0.473048     -1.495134     -0.238785
O       0.16473      5.76400     10.81243        -0.695954      0.328540     -0.939353
O       3.97961      9.52275      2.20132        -1.715054      1.283614     -0.143020
O       3.80527      9.59848     14.38590         1.096336      0.922439      0.429500
O      15.52950      9.50938      2.48996         1.650268      0.693332     -0.420403
O       0.02621      9.56502     14.70293         0.354049      0.803144     -0.957987
O       3.77755      9.93257      6.04361         0.783302      0.374273     -0.169124
O      15.48818      9.80621      6.41895         2.338545     -1.511694     -0.008492
O       3.99777     10.03531     10.51632        -0.245793     -1.132673     -0.501207
O       0.25383      9.71436     10.25494        -2.837265     -0.996811     -0.610185
O       7.95383      2.13316      2.15282        -1.057973     -0.336056     -0.875017
O       7.94838      2.32925     14.49731        -0.899051     -1.428331      0.322568
O       7.90314     13.79482      2.10737         0.142835     -0.503870     -0.522522
O       7.55673     13.98358     14.43309         2.107678     -1.285847      1.159745
O       7.85469      1.60059      6.47441         0.815830      0.598951     -0.573272
O       7.86184     13.87899      6.23569         0.672294      0.072333     -0.233559
O       7.85967      1.72112     10.52976        -0.758538     -0.290149      0.261776
O       7.86849     13.77459     10.04489         0.582825     -0.012303      1.319297
O       7.87828      5.90680      2.14968        -0.214223      0.887369     -0.978909
O       7.81713      5.72040     14.28857         1.172157     -0.107390      0.617320
O       7.39339      6.07476      6.57509         1.771568     -0.511932      0.333406
O       7.61361      6.00223     10.37870        -0.319709     -0.535949      0.868834
O       8.04755      9.76824      1.51972        -1.010705      0.717275      0.865307
O       7.79641     10.05621     14.66326         0.255671     -1.103402      1.477266
O       7.82725      9.70507      6.45120        -2.742044     -0.092784     -0.137813
O       7.90461     10.03348     10.69063        -0.924429     -0.923763      0.004979
O      11.48774      2.16951      2.11517         1.113422     -0.647421      0.778909
O      11.75549      2.17394     14.72501         1.925835     -0.293587      0.354872
O      11.78618     13.59777      2.54531         1.100882     -0.514564     -1.379793
O      11.86243     13.74167     14.92787        -1.699763     -1.097594     -0.615836
O      11.65498      2.23969      6.43536        -0.686515     -0.637907      0.417100
O      11.69281     13.08133      6.00264        -1.691562      1.547383      0.256932
O      11.75328      2.08125     10.18921        -3.110319      0.048213      0.362502
O      11.73608     13.13668     10.30538         0.006569      1.383445      0.915946
O      11.73015      6.18342      1.98553        -0.382774     -1.730143     -0.222268
O      11.83813      5.86370     14.22291        -1.756418     -1.179461      2.028412
O      11.54552      5.91474      6.73515        -0.766129     -0.222150     -0.553831
O      11.75822      5.68160     10.47082         1.336035     -0.249829     -0.611311
O      11.75855     10.05364      2.43844         1.088209     -3.617948     -3.016457
O      11.75376      9.32741     14.60009         0.964342      0.940516     -0.490132
O      11.52214      9.91073      5.97251        -0.187893     -0.942749      1.054641
O      11.71053      9.90902     10.50535         0.701375     -0.362106      0.051271
O       2.13305      3.97327      2.28561        -0.092621     -0.251300      0.065277
O       2.13087      3.80795     14.38933        -1.582944      0.195198      0.406263
O       2.31342     15.56372      2.11632        -1.824745      2.535749      0.908468
O       2.02303     15.53840     15.21040         0.610412      0.236527     -0.810234
O      13.33283      3.91719      2.18159         0.518259      0.378876      0.222077
O      13.76332      3.71220     14.57741         0.004431     -0.176841      0.178329
O      13.65782      0.05000      2.52912        -0.216270      0.283585     -0.190930
O      13.56268      0.08365     14.97682         0.680807      0.826527     -0.372675
O       1.88734      3.97044      6.12405         0.587566     -1.773411      1.183304
O       1.64247      0.15492      6.63637        -0.033986     -1.843684      0.490884
O      13.57775      4.10715      6.46775         0.007710      0.957810      0.525277
O      13.42782     15.36749      6.17520         0.106451     -0.115550      0.693389
O       1.82887      3.60320     10.72896         0.283478      1.018513      0.104335
O       1.89087     15.40318     10.67688         0.902621      1.909207     -0.152718
O      13.77815      3.67408     10.38494         0.358505      2.443901      0.972943
O      13.42487     15.17948     10.08120         0.304819      2.498695      0.769250
O       1.62540      7.67256      1.73825         1.615233     -1.762918      1.259851
O       1.96898      7.93746     14.64116        -0.860333     -2.475317      0.647012
O      13.75536      7.60922      2.16039         0.215258     -1.595788     -1.355475
O      13.80755      7.61316     14.50036         0.328318     -0.339908      0.028091
O       1.77467      7.66076      5.95244         0.606564      2.949516      1.572029
O      13.49108      7.85250      6.44832         0.624398     -5.260822      1.598585
O       2.19718      7.70649     10.18426        -1.962954     -0.216263      0.756298
O      13.77464      7.83018     10.71377         0.167334     -0.501953     -1.187226
O       1.92341     11.81302      2.40797         0.528782     -0.774622     -0.111637
O       1.89804     11.58188     14.84421        -0.419207      0.694465     -0.462069
O      14.12015     11.60197      2.15851        -0.649218      0.035621      0.257955
O      13.73568     11.52499     14.71979        -0.092040      0.186182     -0.412821
O       1.91868     11.83897      6.45994        -0.223886      0.078141      0.247481
O      13.73733     11.36355      6.11625         0.307568      1.877641      0.165208
O       1.88548     11.53475      9.95431        -0.511635      0.137215      0.791719
O      13.79089     11.57229     10.27935         0.504230     -0.837247      1.834059
O       5.75854      4.04215      2.24829         0.876650      0.055092     -0.369167
O       5.83804      4.00163     14.77845         0.274261      0.967904      0.534966
O       5.91505      0.08137      2.36771        -0.868927     -0.366880     -1.585557
O       6.00960      0.25854     14.49670        -0.714560     -0.535751      0.650104
O       5.87015      3.80997      6.22260        -0.215822      0.385320      0.372816
O       5.75117      0.09304      6.42457         0.393256     -1.191227     -0.051139
O       6.00277      3.85806     10.44665        -0.024632      3.227283      0.739628
O       5.94413      0.05805     10.12979        -1.431022     -0.778992      0.532049
O       6.08918      8.14548      2.16068        -0.406800     -0.697736     -1.257884
O       5.99123      7.86752     14.58353         0.008952      1.186500      1.399920
O       5.39939      8.10558      6.54490         1.137222     -2.415879     -0.713232
O       5.86444      7.80554     10.52750        -0.103029      0.483733      0.283843
O       6.05031     11.87070      2.24833        -1.045058     -1.208167     -0.783358
O       5.75346     11.89350     14.51980         0.964139     -0.835042      0.537108
O       6.21333     11.78292      6.13752        -1.364780      0.745499      0.209893
O       5.89624     11.72024     10.13252         0.376197      2.022586      1.539425
O       9.84032      4.19657      2.07730        -0.085208     -3.353239      0.336306
O       9.77985      3.77279     14.57765         0.891831      4.018471     -0.416057
O      10.02955     15.48914      1.99187        -0.955601      2.214113      0.785492
O       9.91195      0.07689     14.56992        -0.964772     -0.725517     -0.077724
O       9.45542      3.81241      6.33260         0.020413      1.886848      0.549609
O      10.08445      0.04577      5.79888        -0.700608     -0.625652      1.653336
O       9.39978      3.82405     10.25109         0.952997      0.216827     -0.166096
O      10.19727     15.46812     10.27945        -0.738783      1.036160     -0.082084
O       9.96134      7.82183      2.41392        -1.517218      0.155204     -1.763271
O       9.52849      7.73466     14.38721         0.396483     -1.716638     -0.407867
O       9.36608      7.82398      6.37253         1.699346     -0.896890     -0.394836
O       9.83369      7.73810     10.53783         0.041450      0.962316      0.244574
O      10.00410     11.57679      1.77675        -1.548029      1.891674     -0.000431
O       9.71708     11.88047     14.88608        -0.242558     -2.930817      0.092820
O       9.48535     11.54139      6.48619        -0.005731      2.664779     -0.807499
O       9.77244     11.78378     10.18035        -0.781989     -0.084063      1.390267
