  # total energy = -7827.69199762 
CRSYTAL
PRIMVEC
    15.6080000000000005    0.0000000000000000    0.0000000000000000
     0.0000000000000000   15.6080000000000005    0.0000000000000000
     0.0000000000000000    0.0000000000000000   16.6239999999999988
PRESSURE
5.30342 5.25803 -0.25581 0.133708 -0.13529 -0.103788
PRIMCOORD
320 1
Pb       4.31215      4.04852      4.28490        -0.235814      1.073340      0.647654
Pb       4.10019      3.83329      0.11521         0.089710      0.217096     -0.779476
Pb       4.31816      0.14709      4.32959        -0.822491      0.078706      0.730424
Pb       3.80340      0.06927      0.57646         0.610032      1.037698     -3.113249
Pb       0.49306      4.07611      4.30143        -1.368092     -0.473676     -0.611707
Pb       0.09547      3.91498      0.42570        -0.617421     -0.484394     -1.077105
Pb      15.27386     15.59007      4.33417         1.094344      0.723464      0.921772
Pb       0.20165      0.00861      0.12162        -0.052641     -0.040674     -1.105699
Pb       3.97983      3.67312      8.25409        -0.610236      0.278695     -0.892895
Pb       3.91556      0.03891      8.88454        -0.625460     -0.511927     -1.939346
Pb      15.41678      3.82549      8.17059         0.296606      0.162401      0.118497
Pb      14.98842     15.42742      7.91071         0.961167      1.027748      0.257083
Pb       3.75661      3.89190     12.27617         0.274171     -0.525221      1.120406
Pb       3.64733      0.46540     12.45234         2.703581     -1.983409      0.312892
Pb       0.26319      3.77661     12.70044         0.390611      0.544282     -0.799576
Pb      15.20053     15.34562     11.93981         0.969038     -0.610986      0.675255
Pb       3.81639      8.24130      4.20203         0.981149     -0.807259      1.154192
Pb       3.90097      8.01030      0.12759        -1.006800      0.304705     -0.267393
Pb       0.22678      7.65397      4.22440        -1.160942     -0.172048     -0.523902
Pb       0.17950      8.15294     16.58612         0.078090      0.514412      0.530396
Pb       4.17113      7.83651      9.01952        -1.422190      0.866783     -3.046241
Pb       0.06765      7.72918      8.72128        -0.220478     -0.593359     -0.198913
Pb       3.74975      7.37770     13.01031        -0.161519      1.079933     -1.139764
Pb       0.11812      7.39814     12.78582        -0.512912      0.284748     -0.774920
Pb       3.56257     12.15057      4.92049         0.402593     -0.955132     -1.060837
Pb       3.29319     12.06635      0.44292         1.836174     -2.817843     -1.703494
Pb       0.09818     11.63660      4.43624         0.706744      0.062593      0.171406
Pb      15.42669     11.84896     16.35591         0.624257     -1.463443      0.875531
Pb       3.57991     11.51190      8.61196         1.803584      1.088426     -0.995496
Pb      15.29505     11.46689      8.19853         1.512999     -0.091970     -0.018013
Pb       4.22539     11.86447     12.75354        -0.854304      0.100108     -1.760443
Pb      15.14006     11.92817     12.43666         0.928557     -0.940006      0.289311
Pb       7.90404      4.01283      3.69942         1.013649      0.511882      1.701935
Pb       7.77899      3.88679     16.46754        -0.159782     -0.661109      0.299056
Pb       8.37524     15.56894      4.11217        -0.875204      0.242176      0.023171
Pb       7.58699     15.38748     16.59012         0.589320      0.221677     -0.080149
Pb       7.52117      4.01923      8.18251         1.275202      0.901614     -0.266920
Pb       7.66097      0.00960      8.38727         0.415492      0.255350     -0.041859
Pb       7.99236      3.94464     12.52525        -0.651399     -0.032392     -0.420960
Pb       8.01748      0.15029     12.99804        -0.802042     -0.882170     -1.356307
Pb       7.55921      7.86650      4.05395        -0.314682     -1.246947      0.411660
Pb       7.47020      7.90597      0.25929         2.261011     -0.170664     -1.956571
Pb       7.76343      8.00929      8.34960         0.321144     -0.253645     -0.801940
Pb       7.56489      7.86046     12.78455         1.055016      1.487170     -1.300112
Pb       7.62686     11.90938      4.09766        -0.429075      0.200545     -0.246578
Pb       7.88010     11.88488      0.04127        -0.136006     -0.173784     -0.400529
Pb       7.60180     11.47648      8.16646         0.228701      0.692741      1.005907
Pb       8.08570     11.57817     12.94092        -0.050736      0.210638     -0.997596
Pb      11.58491      3.68195      3.90883        -0.586056      0.737988      0.146521
Pb      12.02473      3.78061     16.57065        -1.380403     -0.607242      0.769750
Pb      11.87554     15.10835      4.42815        -0.349611      1.444003     -0.131051
Pb      12.40154     15.58995      0.50104        -1.254578     -0.459395     -0.991874
Pb      11.60825      4.15869      8.64065        -0.581342     -0.822128     -0.024073
Pb      11.62274      0.36230      8.11205        -0.633474     -0.251351      0.139326
Pb      11.62898      3.40274     12.67381         0.010923      0.918864     -1.308490
Pb      11.50225     15.08164     12.09048         1.117351      1.111222      0.311565
Pb      11.13830      7.45267      4.27022         2.164608      0.847777     -0.753748
Pb      12.20521      7.84901      0.15082        -0.621883     -0.522163     -1.528637
Pb      12.07749      7.46304      9.03607        -1.100984      0.732919     -0.994364
Pb      11.47560      7.58332     12.84563         1.214944      0.619919     -1.745133
Pb      11.38383     11.40698      4.04517         0.559929      1.412742      0.374285
Pb      11.89487     11.48580     16.34818         0.230327     -0.164493      0.482390
Pb      11.07177     11.50939      8.30729         1.834272     -0.609451     -0.409304
Pb      11.53368     11.49877     12.22364         0.092788     -0.283286     -0.435637
Ti       2.02717      2.22087      1.99107         0.084083     -2.510262      0.998715
Ti       2.00127      1.91228     14.54317         1.852142     -0.265737      0.082150
Ti       1.83851     13.93601      2.18808        -2.156384     -0.016649      2.260204
Ti       2.04194     13.70222     14.40579        -2.439804      0.750531     -0.698399
Ti      13.65378      1.96848      2.35652         0.643532      0.804958     -0.501549
Ti      13.96873      1.74743     14.21971        -1.366945     -2.024956      1.640926
Ti      13.74905     13.24709      2.48576        -0.170104      1.055029     -3.210757
Ti      13.79277     13.65782     14.66680        -0.844329      0.944696     -0.177299
Ti       2.03870      1.80138      6.40961         0.497747      0.992560      0.194201
Ti       1.80685     13.92860      6.42764         0.204945     -1.884237     -0.227835
Ti      13.53012      2.34330      6.24412         1.037980     -0.822217     -0.164786
Ti      13.55657     13.16820      6.17755        -1.066972      3.031584      0.772404
Ti       1.64184      1.73483     10.34577         2.175884      0.744504     -0.929122
Ti       1.79685     13.52831     10.26051         0.833601     -0.316237     -0.294969
Ti      13.53966      1.87580     10.25841        -1.271712     -0.117530     -1.831960
Ti      13.60438     13.44978      9.93891         0.153180      0.224181      1.391403
Ti       2.09864      5.88025      1.83910         0.623340     -1.395675      1.564253
Ti       1.88102      5.81261     14.71206         1.618003     -1.447406      0.373513
Ti      13.68974      5.62616      1.82994         0.132769      1.250410      1.525139
Ti      13.65783      5.49182     14.36437         0.433511      2.303995      0.941408
Ti       1.85627      5.85193      6.19540         1.363149      0.142199      0.024724
Ti      13.23179      5.96426      6.11628         2.235005     -0.525476     -1.590829
Ti       1.92272      5.52015     10.08999        -0.432488      0.649693      1.414356
Ti      13.78527      5.61240     10.61589        -0.841656      0.799323     -1.401125
Ti       1.84791      9.96006      2.44990        -1.384851     -0.944150     -3.509694
Ti       1.94179      9.96453     14.07413         0.215469      0.058791      4.404905
Ti      13.54126      9.37147      2.21508         3.868683      1.187615      1.195710
Ti      13.72677      9.54462     14.27049        -0.274598     -0.431815      1.694901
Ti       1.79933      9.59038      6.45227         1.951617      0.911847      0.632031
Ti      13.34059      9.58995      6.10500         1.641450     -2.931082     -0.884444
Ti       2.01593      9.70296     10.44712        -0.017370     -0.262758     -1.052457
Ti      13.78132      9.71550     10.21850        -1.756107     -0.825818      0.644949
Ti       6.02286      1.92872      2.20930        -0.437970      1.794322     -1.558357
Ti       6.05871      2.14695     14.48262        -4.124217     -1.597023     -1.723488
Ti       5.70943     13.73272      2.02385         2.233688     -1.289100     -0.202079
Ti       5.90334     13.71668     14.31293        -1.902963      1.510689      2.134096
Ti       6.20357      2.03986      6.11874        -2.175572      0.141822     -0.016128
Ti       5.95925     13.80417      6.25617        -0.782421      0.989118      0.837185
Ti       5.85169      2.07210     10.28716         0.430040     -0.263633      2.269108
Ti       5.98998     13.67160     10.30602         0.128554     -1.928601     -0.538961
Ti       5.96340      5.81502      1.88434        -3.286390      0.618608      0.093400
Ti       6.00283      6.00436     14.49201        -0.691964     -2.194125      1.934262
Ti       5.65938      6.22600      6.38291         0.392726      0.136576     -0.932638
Ti       5.67657      5.82960     10.49947         1.113468      0.185742     -1.201919
Ti       5.71488      9.92600      1.75005        -0.215951      1.907279      1.317151
Ti       5.82286      9.93226     14.59142        -0.370425      0.070191     -0.217185
Ti       5.81450      9.97005      6.08547        -1.694312     -2.192245      0.155607
Ti       6.08259      9.86319     10.43654        -0.894654      1.381196     -0.513093
Ti       9.69636      1.74357      1.83923         1.776729      1.182393      1.180148
Ti      10.00758      1.83240     14.72812        -1.116954      0.294031      2.196264
Ti       9.87541     13.55008      1.92445        -1.001367      1.580544     -0.390625
Ti      10.11753     13.65799     14.72062        -5.236098     -0.125413      0.383690
Ti       9.77342      2.09057      6.16969         0.357254      1.005192      0.483933
Ti       9.72957     13.61887      6.09216         0.728459     -0.169277      0.281601
Ti       9.57255      2.00678     10.36342         0.653677     -0.327975     -2.969391
Ti       9.90762     13.79223      9.82109        -2.394536     -2.607834      1.405023
Ti       9.89368      5.78481      1.53190         0.854662      0.751131      3.042871
Ti       9.83249      5.67509     14.53747         0.245120      2.525394     -0.168220
Ti       9.62759      5.99237      6.36096        -2.877935     -2.107430      1.004380
Ti       9.37377      5.98178     10.33876         2.946412     -0.339351     -0.266123
Ti       9.81889      9.71588      2.08589        -1.521806     -0.976484     -0.659711
Ti       9.77437      9.44803     14.72804         0.303262      1.470649     -1.311107
Ti       9.63981      9.69738      6.04969        -2.575072     -0.360623      1.816427
Ti       9.76922      9.74693     10.44412         0.173324     -0.350913     -0.558903
O       2.02980      2.02637      0.20714        -0.218266      0.500474     -1.275544
O       1.88446      1.63927     12.55756        -1.773335      1.250895      0.324688
O       1.63855     13.45432      0.25903        -0.495668      2.093064      1.951642
O       1.72451     13.55743     12.60732         0.270006      0.167262     -0.572780
O      13.41667      2.09978      0.47935         1.301745     -1.106581      0.185451
O      13.52811      1.30396     12.46813         0.207379      1.868701     -0.063312
O      13.92290     13.58476     16.61881        -1.054249      0.300633      1.645284
O      13.54721     13.60856     12.69825         0.607396      0.222665      0.478879
O       1.86966      1.72452      4.67138         0.470908      0.311395     -0.720617
O       1.76690     13.67951      4.42644         0.519689      0.563017      0.070077
O      13.47046      2.17833      4.36070         0.297904      0.022476      0.178985
O      13.81651     13.37371      4.22940        -0.414197     -0.265735      2.166363
O       2.16685      2.02172      8.60976        -0.588780     -0.760938     -0.798394
O       1.56154     13.86444      8.32605         0.976373     -1.970043      3.584806
O      13.58069      1.77835      8.35629         0.253399      0.984568      0.665304
O      13.40995     13.09990      8.24905         0.619168      0.518354     -2.679718
O       1.86320      5.25107     16.54149         0.101761      1.131464      0.941987
O       2.12465      5.72601     12.63072        -1.354724      0.375485      0.310206
O      13.51765      5.54154     16.56391         1.631668      0.334785     -0.125844
O      13.86897      5.67221     12.51995        -0.607660     -0.269813      1.037883
O       1.91615      5.87405      3.95324         0.074152     -0.011949      0.511848
O      13.26742      5.92674      4.28550        -0.442346     -0.288667      1.217032
O       1.92686      5.64797      8.28277        -0.597317      0.398089      0.377592
O      13.90500      5.76749      8.64621        -0.451767      1.321984     -0.176046
O       2.22811      9.61025      0.48583        -1.468707      1.126507     -0.067347
O       1.89436      9.73068     12.38585        -0.346690     -0.063334     -2.075922
O      13.69885      9.68337      0.06027        -0.655222     -0.734520      0.789197
O      13.65845      9.63865     12.56276         0.424072      0.803386     -1.847892
O       1.89008      9.69715      4.25928        -0.206097     -0.323679      0.409248
O      13.60319      9.18937      4.11703        -0.564051      1.643635      2.405886
O       2.30669      9.61779      8.30153        -1.481080     -0.611160     -0.540656
O      13.38019      9.98833      8.40599         0.578986     -1.790930     -0.475783
O       6.08733      2.28492      0.21948        -0.235304     -0.597745     -0.635387
O       5.89564      2.19885     12.58930         0.269293     -0.122084      0.593672
O       5.78197     13.89954      0.11474         0.138973      0.086029      1.753761
O       5.74867     13.62604     12.56661         0.714610      0.075196     -1.819196
O       5.90205      2.03050      4.25698         0.453823      0.140070     -0.223650
O       5.90661     13.83172      4.20743        -0.083155     -0.700642      0.694865
O       5.73943      2.19617      8.50513         0.981669     -0.397411     -0.743039
O       5.86405     13.49467      8.36068         0.415914      1.334390     -0.766521
O       6.11532      5.92668     16.57211        -0.110437     -0.224052      0.819442
O       5.93393      6.32180     12.61230        -1.087393     -2.218600      0.060263
O       5.90651      5.92155      4.33037        -0.225120      0.705828     -0.224388
O       5.45109      5.65815      8.48241         1.172547      0.991016     -0.224119
O       5.49180     10.12145     16.60518         0.438213     -1.279098     -0.784143
O       6.15514      9.97790     12.74062        -0.700272     -0.061470     -1.037144
O       5.82596      9.87424      4.27452         1.012839     -0.166066     -0.715473
O       5.92176      9.77027      8.46727         0.664021      0.585581      1.218108
O       9.70884      1.97540      0.06770         0.022330      0.399601     -2.424261
O      10.01669      1.69530     12.17181        -0.444315      0.997334      2.173178
O       9.57643     13.80364      0.07812         0.905598     -0.334789     -0.095188
O       9.78351     13.87444     12.89914         0.015870     -0.970444     -0.434072
O       9.42605      2.15440      4.27489         1.402931     -0.213990     -0.372852
O       9.72628     13.39939      4.15051        -0.372514      0.554451     -0.227875
O       9.69969      1.87445      8.31296         0.032952     -0.955396     -0.042648
O      10.06431     13.87048      8.04733        -0.574106     -0.498086     -0.073174
O       9.78131      5.99772     16.41862        -0.471357      0.059932     -0.624404
O       9.87251      5.44693     12.13629        -0.792533      0.243301      1.849019
O       9.49275      6.05427      4.47326        -0.499763     -1.342280      0.314130
O       9.34514      5.91337      8.36060         0.914298     -0.347842      0.746398
O      10.20975      9.76503     16.38371        -0.575492     -1.467889      2.701793
O       9.88592      9.82321     12.41752        -0.419437      0.603934      2.048368
O       9.41738      9.75173      4.06221         0.718913      0.775399      0.183950
O       9.58567      9.73714      8.41037         0.344337     -0.097666      0.008032
O       4.05976      1.83991      1.98413        -0.149805      1.250610      0.943121
O       3.85352      2.08598     14.40953        -0.051264     -0.615038      0.624190
O       3.81393     13.88942      2.01627         0.778136     -0.956749      1.245458
O       3.76007     13.60558     14.50411         2.931205     -0.215210      0.183368
O       0.12832      2.09945      2.21819        -0.548847      0.239956      0.180254
O       0.12172      1.57959     14.75004        -1.523986      1.126725     -0.711808
O       0.01433     14.12940      2.61845         0.328047     -1.710121     -2.234854
O      15.56194     13.77885     14.74126         0.306347     -0.118732     -0.713028
O       4.10140      1.95447      6.55726        -2.541004     -0.324175     -0.996238
O       3.86873     14.02531      6.33625         0.036819     -0.950402     -0.292698
O      15.32885      1.80304      6.56768         0.387901      0.662312     -0.370926
O      15.48176     13.66081      6.31345        -0.943675     -1.100007     -0.249685
O       3.99786      2.17345     10.64832        -0.078710     -1.466781     -0.198427
O       3.94260     13.33567     10.60463        -1.583988      1.078068     -1.146883
O      15.51953      1.74166     10.27094        -1.895430     -0.426561      0.479959
O      15.49542     13.28113     10.70581         0.655821      2.124305     -1.745739
O       3.98134      6.01279      1.81212         0.186237      0.452974     -0.108714
O       3.78633      5.85053     14.92468         1.506149      0.660974     -1.141194
O      15.54111      5.65179      2.10909        -0.147390     -1.240989     -0.692145
O       0.01082      5.52998     14.57994        -1.131001      0.670721     -0.426501
O       3.82043      5.71482      5.92520        -0.553386     -0.002070      1.105526
O      15.57168      5.97552      5.94615         0.791335      0.210801      0.457294
O       3.79658      5.81180     10.50937         0.055358     -0.872855      0.512033
O       0.04823      5.80630     10.68262         2.497139      0.048636     -0.716266
O       4.02097      9.49641      2.14200        -1.561432      0.815959      1.038534
O       3.87880      9.61446     14.15899        -0.880727      0.738066      1.156719
O      15.50125      9.47532      2.36344         2.303071      1.037541     -0.622335
O       0.02343      9.52218     14.64079         1.404658      0.732982     -0.890615
O       3.77974     10.03809      5.98136         0.314970     -0.149388      0.554545
O      15.49387      9.70513      6.44077         1.031945     -0.779186     -0.196834
O       4.11386     10.06056     10.33393        -2.200277     -1.301824      1.262347
O       0.13014      9.80893     10.18341        -0.420386     -2.076992     -0.109672
O       7.93167      2.24064      2.08327        -1.670881     -0.456667      0.296717
O       7.82092      2.14382     14.41794         3.180050      0.631212      0.599906
O       7.96378     13.88034      2.05851        -1.367893     -1.261070      0.537917
O       7.62534     13.98354     14.48354         2.297215     -1.106785      1.077259
O       7.99174      1.69432      6.26228        -2.962270     -0.594760      0.828738
O       7.92488     13.94071      6.22084        -1.370468     -0.239660      0.045950
O       7.70542      1.72512     10.36422         1.656639      0.369249      0.449470
O       7.97075     13.63796     10.24000        -0.065180      1.464333     -0.392580
O       7.64482      6.09416      2.13735         3.991423     -0.076534     -0.168470
O       7.92457      5.79482     14.35643        -1.487467     -0.350827     -0.109084
O       7.51174      6.36471      6.51896        -0.460672     -1.174825     -0.009880
O       7.64672      6.00577     10.38156        -1.087162     -0.093852      0.795146
O       8.02944      9.95687      1.48353         0.631000     -0.289969      1.066506
O       7.75108     10.01024     14.71937         1.919846     -1.128318      0.583878
O       7.70601      9.70969      6.48688         0.897518     -0.483500     -1.123673
O       7.98500      9.94307     10.73948        -2.554462     -0.413985     -0.522093
O      11.48837      2.16172      2.30156         0.729201     -1.387256     -0.151516
O      11.74653      2.09380     14.89331         0.240124     -0.540865     -1.760946
O      11.86205     13.63941      2.45566         0.152692     -0.638247     -1.123710
O      11.75317     13.74032     14.82911         4.255418     -0.180045      0.322486
O      11.73570      2.02668      6.50390        -0.413955      1.127646     -0.878888
O      11.59238     13.07449      5.93252         2.172913      1.261740     -0.010127
O      11.72334      1.91671     10.15476         0.514812      1.148836      0.990277
O      11.89180     13.30242     10.29563        -2.604299      0.234671      1.169333
O      11.75084      5.83081      1.75804        -1.920657      0.490693      0.493655
O      11.75970      5.65418     14.56539         0.143269      0.282924     -1.010262
O      11.43575      6.07381      6.63442         0.950203     -1.130578     -0.308974
O      11.73193      5.61575     10.44654         1.057937      0.797487     -0.505973
O      11.78784      9.85938      2.28373        -2.174593     -0.645836     -1.142930
O      11.76577      9.34864     14.46209        -0.833138      0.958993      0.086356
O      11.51124      9.76066      5.98910         0.089490      0.172883      0.271937
O      11.66074      9.85076     10.60173         1.674764     -0.197746     -0.657350
O       2.28967      3.95864      2.15759        -0.472268     -0.801671      0.545916
O       1.91982      3.79172     14.25238        -0.324415     -0.750997      0.770863
O       2.12796      0.16233      2.14208        -1.104661     -1.219384      0.129013
O       2.03816     15.51278     15.01644        -0.090774      0.872685     -0.095920
O      13.34813      3.85928      2.25563         0.795473      1.235280      0.308302
O      13.69929      3.61340     14.27697         0.125383      0.285473      0.370981
O      13.70048      0.16457      2.53354        -0.602481     -0.807124     -0.587438
O      13.52713      0.15370     15.05076         0.615286     -0.782420     -0.829943
O       1.62174      3.96781      6.28004         0.914511     -1.141215      0.421961
O       1.59574      0.03817      6.84792         0.627266      1.835946     -1.262729
O      13.74372      4.15020      6.55799        -0.677130     -1.147530     -0.447439
O      13.49940     15.24969      6.14863        -0.681966     -0.302598      0.050003
O       1.88732      3.57970     10.53057        -0.189346      3.729915      0.925449
O       2.02035     15.47526     10.44635        -0.009642     -0.690680      0.404698
O      13.80412      3.86522     10.23805        -0.382878     -3.026534      1.101783
O      13.41144     15.35737     10.06924         1.455111      0.360562      1.223621
O       1.66261      7.48419      1.67893         0.315891      3.094485      0.583382
O       1.98215      7.71045     14.64811        -0.896675      0.612077     -0.194520
O      13.75398      7.55889      2.10948        -1.047583      0.009563     -1.348593
O      13.65223      7.58028     14.41951         0.547291     -0.376656      0.266426
O       2.17381      7.78324      6.03238        -1.216131      0.361839      0.874478
O      13.42458      7.72057      6.44227         0.446621      1.850688      0.609154
O       2.13717      7.67672     10.15462        -1.598455      0.968309      1.119025
O      13.82878      7.80726     10.60038        -0.184677     -0.442096     -0.821673
O       1.84553     11.75223      2.56883         0.356395      0.700965     -1.112724
O       1.86051     11.80131     14.84221         0.008020     -2.522407     -1.109775
O      13.87407     11.52842      2.19259        -0.070301      0.397555      0.291374
O      13.77691     11.57844     14.71230        -0.761033      0.743107     -0.609456
O       1.87353     11.78221      6.55178        -0.201751     -0.140873     -1.040160
O      13.70374     11.41066      6.16772         0.124348     -0.316573     -0.673518
O       1.73479     11.53164     10.04390         1.286318      1.537195      0.707590
O      13.86410     11.47360     10.32317        -0.472407      2.520845      1.832375
O       5.83434      4.06490      2.21709         0.084019     -0.866610     -0.108426
O       5.72910      4.11170     14.64550         1.137753     -0.058056     -0.033618
O       5.97449      0.20838      2.45362         0.092981     -2.802900     -1.157893
O       5.98245      0.17472     14.51362        -0.489510      0.828245      0.339547
O       5.81705      3.88606      6.22787         1.099225     -0.273684      0.529229
O       5.89332      0.09793      6.37723         0.312946     -0.866474     -0.117428
O       6.06740      4.04144     10.50894        -0.402939     -0.515375      0.751756
O       5.85236      0.03203     10.09278        -0.203437     -0.263709      1.010302
O       6.16237      8.17230      1.93499        -0.689141     -2.016514      0.949892
O       6.04751      7.95471     14.76257        -0.301785     -0.647214     -0.072033
O       5.48251      8.12396      6.51919         0.028008     -2.598512     -0.663175
O       5.80765      7.86643     10.46333         0.977341      0.147335      1.103680
O       5.88327     11.83418      1.94947         0.070435      1.621798      1.187535
O       5.87852     11.83402     14.68949        -0.338792      0.242012     -0.478838
O       6.22791     11.73027      6.28892        -0.919514      2.953486     -0.697362
O       5.98104     11.77476     10.26782         0.780539     -0.476024      1.173823
O       9.79854      4.05722      2.10696        -0.885595      0.982713     -0.509196
O       9.81130      3.98073     14.66561        -0.392720     -3.828459     -0.757169
O       9.78936     15.57635      1.94451         0.449393      0.004268      1.156797
O       9.71870      0.09958     14.73387         0.105093     -0.197413     -0.230060
O       9.24294      3.86814      6.35293         1.114792      1.675965      0.098051
O      10.14219      0.07882      5.94630        -0.798988     -1.721231     -0.077538
O       9.65935      3.78648     10.02914        -0.634496      0.478569      1.282097
O      10.18343     15.50922     10.14348        -0.811659      0.623661      0.871353
O       9.90163      7.75311      2.37176        -0.813435      1.005480     -2.222751
O       9.59922      7.65276     14.17996         0.480898      0.987370      1.009561
O       9.49803      7.81590      6.39706         0.933435      2.703645     -0.756561
O       9.78809      7.84116     10.43236        -0.113841     -1.214805      0.093673
O       9.93139     11.74313      1.88279        -0.064199     -1.647581      0.349710
O       9.71243     11.79066     15.00651         0.659557      0.040531     -1.546754
O       9.52322     11.71662      6.36881        -0.403707     -1.210715     -0.696383
O       9.82805     11.81751     10.23309         0.301373     -0.094857      0.628179
