  # total energy = -7830.58312345 
CRSYTAL
PRIMVEC
    15.6080000000000005    0.0000000000000000    0.0000000000000000
     0.0000000000000000   15.6080000000000005    0.0000000000000000
     0.0000000000000000    0.0000000000000000   16.6239999999999988
PRESSURE
4.82711 4.74902 0.312211 -0.101216 0.184884 0.345947
PRIMCOORD
320 1
Pb       4.33548      4.08536      4.30130        -1.389008     -1.221985     -0.626512
Pb       4.15678      3.69775      0.06542        -1.051098      1.078519      0.182314
Pb       4.34831      0.12581      4.25673        -1.247704     -0.265231      0.035238
Pb       3.93186      0.17197      0.56476        -2.094383     -1.179709     -2.276192
Pb       0.52067      4.02774      4.25137        -2.205642     -1.318921     -0.426094
Pb       0.08942      3.92904      0.35928        -0.260293     -0.468704     -1.047254
Pb      15.34910      0.04190      4.23032         0.475037      0.083718      0.039824
Pb       0.09292      0.06696      0.10528         0.988060     -0.051952     -0.245490
Pb       4.02392      3.67734      8.21293        -0.251244      0.322575      0.041687
Pb       3.96382      0.01332      8.92384        -0.839572      0.481157     -2.492379
Pb      15.47708      3.73315      8.23506         0.212741      1.024572      0.587675
Pb      15.06699     15.43930      7.99108         0.899060      0.962829      0.074260
Pb       3.67306      3.84506     12.25254         0.505320      0.003873      0.652370
Pb       3.74140      0.51597     12.42232        -0.525009     -1.825717     -0.376502
Pb       0.28864      3.85280     12.55345        -0.935221     -0.072764      0.890189
Pb      15.13934     15.30971     11.86867         1.459926      0.549901      1.745240
Pb       3.92218      8.31133      4.19882        -0.622982     -1.243629     -1.236383
Pb       3.96906      8.00423      0.09400         0.237098     -0.497309      0.030986
Pb       0.26319      7.61026      4.20046        -1.464284      1.379357     -0.291312
Pb       0.18793      8.26929     16.52588        -1.363283     -1.847669      0.190863
Pb       4.22289      7.88746      8.96561        -0.899898     -0.110063     -2.120080
Pb       0.04833      7.80346      8.71626        -0.443588     -1.249210     -1.742711
Pb       3.76369      7.39036     12.95589         0.311853      0.557705     -0.570287
Pb       0.04423      7.48231     12.66994        -0.300569     -0.539370     -0.154853
Pb       3.58243     12.16180      4.89859         0.712021     -1.656230     -2.561638
Pb       3.28775     12.01879      0.49367         1.483438     -0.552155     -2.508237
Pb       0.22679     11.62510      4.26435        -1.172767      0.055608     -0.041329
Pb      15.37744     11.73189     16.30734         0.567517     -0.654926      0.832892
Pb       3.64577     11.49218      8.51791         0.264513      0.608343     -1.065601
Pb      15.33325     11.55710      8.21741         0.950380     -0.873480     -0.585617
Pb       4.43471     11.85910     12.64636        -0.897722      0.657322     -0.068383
Pb      15.11871     11.87990     12.46637         1.499296     -0.321957      1.015264
Pb       8.10631      3.98477      3.58844        -0.605480      0.247482      0.405927
Pb       7.78176      3.95749     16.42902         0.851370     -0.131956      0.850638
Pb       8.49741     15.58318      4.13079        -1.929077      0.176813      0.160966
Pb       7.59574     15.25386     16.58119        -0.165323      1.367018     -0.452248
Pb       7.47471      4.05201      8.00485         0.287890     -1.583047      1.499217
Pb       7.64329      0.02837      8.42020         0.692835      0.501745     -0.832327
Pb       7.95535      3.91966     12.47393        -0.170154      0.024918      0.220044
Pb       8.19698      0.28489     12.92962        -2.463872     -1.768502     -1.429692
Pb       7.48353      7.88276      4.06783         1.112646      0.343427     -1.048363
Pb       7.54267      7.90964      0.29726        -0.277912      0.427620     -0.436949
Pb       7.71028      8.10081      8.32397         0.098364     -1.101353      0.116331
Pb       7.62758      7.99795     12.66626        -0.165506     -0.148465      0.162331
Pb       7.64555     11.88195      4.04485        -0.055612     -0.443196      0.675802
Pb       8.00381     12.10013      0.02425        -1.601735     -1.800584     -1.426505
Pb       7.60074     11.38335      8.02644        -0.497331      1.109202      0.430668
Pb       8.02212     11.43427     12.88632        -0.475686      1.529580     -0.105056
Pb      11.32078      3.64909      3.88015         2.714048      2.148788      0.571839
Pb      11.92442      3.72860     16.54114         0.880838      0.576679      0.738640
Pb      11.75649     15.19764      4.40977         0.256962      0.478113     -0.421776
Pb      12.29018     15.59918      0.43626        -0.743150     -0.050671      0.193025
Pb      11.56614      4.11247      8.68582         0.166311      0.180304     -1.870042
Pb      11.60808      0.40530      8.13060        -0.242514     -1.330057     -0.725734
Pb      11.54639      3.30853     12.54738         0.404349      1.744419     -0.291498
Pb      11.45869     15.09780     12.20598         0.454345      0.135252     -0.898820
Pb      11.05855      7.48639      4.24383         1.606413     -0.027015     -0.131862
Pb      12.10658      7.90920      0.06147         0.710468      0.076884      1.004190
Pb      12.07029      7.47630      9.04194        -1.133775      0.689630     -1.925258
Pb      11.51716      7.62412     12.81104        -0.230279     -0.355767     -0.909646
Pb      11.29673     11.39847      3.94890         1.889454      0.558322     -0.312172
Pb      11.94135     11.42093     16.21887        -0.257558      0.381723      1.164222
Pb      11.06609     11.65515      8.29505         1.296746     -1.202976      0.059755
Pb      11.64099     11.51836     12.29441         0.018773      0.796358      0.385630
Ti       1.90636      1.97962      2.29920         0.389285      1.363138     -0.435155
Ti       2.11420      1.98110     14.68952        -2.643729     -0.911856     -0.494569
Ti       1.78073     13.65887      2.44078         1.273165      1.213814     -1.180714
Ti       1.78401     13.68382     14.58951         0.920652     -0.440389     -1.083028
Ti      13.52378      1.87097      2.40561         1.941060      1.627056     -1.521905
Ti      13.71586      1.78928     14.29830         3.272261      1.395260      0.137978
Ti      13.72228     13.35330      2.28029        -0.810075     -1.536476      0.451064
Ti      13.56009     13.83055     14.74142         0.284251     -4.567130     -1.552517
Ti       2.10674      1.96415      6.29279         0.553499     -1.435980     -0.432863
Ti       1.66273     13.79183      6.50953         0.783540     -0.142358      0.196280
Ti      13.56718      2.33822      6.21864        -0.849530     -2.187465     -0.504426
Ti      13.39935     13.29297      6.18411         0.963098      0.110861     -1.571247
Ti       1.67184      1.72181     10.27426         0.509937      0.691127      0.360650
Ti       1.98092     13.36337     10.39733         0.742553      2.235823     -1.799114
Ti      13.45638      1.84165     10.29089         0.455346     -0.240826     -0.514843
Ti      13.50257     13.32186      9.94279        -1.898179      1.306340      2.716421
Ti       2.13105      5.95829      2.20583        -0.106420     -1.528031     -2.065352
Ti       1.94296      5.80483     14.85995        -0.385208     -0.735334      1.051877
Ti      13.85058      5.76146      1.98423        -1.498419      0.503970      0.434974
Ti      13.75583      5.68964     14.56734         0.921813     -0.943717      0.778358
Ti       1.81527      5.81049      6.20088         0.943546      1.453501      1.779311
Ti      13.57205      5.88772      6.04212        -0.314095      0.430815     -0.132835
Ti       1.93062      5.92018     10.45972        -1.356619     -2.928479     -1.988204
Ti      13.61821      5.44468     10.68096         1.016425      1.104188      1.386481
Ti       1.83044      9.78709      2.11965         0.815322      0.150539      0.532780
Ti       1.96058      9.74090     14.25817        -1.091021      1.926750      2.809763
Ti      13.87868      9.52852      2.41685        -3.128888      0.110429     -1.899043
Ti      13.67677      9.51584     14.28497         2.755867      1.261137      0.764099
Ti       1.83691      9.61349      6.31381        -1.296853     -0.572546      0.483365
Ti      13.51171      9.56814      6.17602        -0.260654     -1.361294      0.270084
Ti       2.13717      9.56188     10.49542        -1.448441      1.166235     -0.021600
Ti      13.77202      9.60352     10.40780        -0.421745     -0.277363      0.247514
Ti       5.73486      1.99225      2.10854         2.505850      0.060787     -0.078498
Ti       5.82256      2.13474     14.24916         2.024850     -0.796648      2.113381
Ti       5.87414     13.66668      2.16066        -1.688973      0.262120     -1.123281
Ti       5.53035     14.09515     14.30859         2.974143     -3.466346     -1.071980
Ti       5.95386      1.78422      6.26726         1.108601      1.615787     -0.996041
Ti       5.76989     13.77796      6.27196         0.146371     -0.201195      0.246838
Ti       5.98624      2.05494     10.46318         0.156471     -0.841115     -0.766107
Ti       6.03926     13.70018     10.15086        -1.278233      1.934970      1.429704
Ti       5.88221      5.90359      2.10009         0.104763      1.016098     -1.759961
Ti       5.93713      5.78606     14.49202        -0.435511      1.044807      0.644927
Ti       5.62409      6.03005      5.98141         0.511693      0.281325      2.675345
Ti       5.75399      5.93113     10.52844         0.020328     -1.355023     -0.291330
Ti       5.68945     10.05012      2.13452         0.501178     -3.993497     -1.485390
Ti       5.67721      9.93308     14.65473         2.718988     -0.212112      0.515609
Ti       5.66828      9.75427      6.06993         1.955616      1.099148     -0.242897
Ti       5.90891      9.99137     10.47852         0.966433     -0.681277      0.628167
Ti       9.74494      1.79855      1.83040        -0.449317      0.937973      0.463655
Ti       9.95742      1.86597     14.74109        -0.608347      0.376611      1.011486
Ti       9.82194     13.63712      1.76580         2.612547      0.834738      1.079760
Ti       9.88304     13.61406     14.45233        -1.521172     -1.506747     -0.062615
Ti       9.74008      1.97439      6.11806         0.162291     -0.678187      1.513529
Ti       9.58291     13.33077      6.10543         0.506128      2.425832      1.662492
Ti       9.61809      2.03557     10.07740        -0.692386     -1.295789      0.576214
Ti       9.59155     13.51402     10.12024         2.352247      0.436854      1.437582
Ti       9.93497      6.05781      1.77741        -1.531658     -2.713913     -1.234994
Ti       9.84454      5.68195     14.43767        -0.046325      1.084109      0.884793
Ti       9.61978      5.65912      6.56659         1.368959      0.432461     -0.857883
Ti       9.46271      5.88319     10.48893         2.593062      0.957215     -0.305516
Ti       9.71316      9.66909      1.94344        -0.502330      0.064096     -1.186039
Ti       9.58724      9.56376     14.79048        -0.923933      0.254572      0.343289
Ti       9.63265      9.52456      6.11048         1.233728      3.099363     -0.384639
Ti       9.81905      9.75496     10.59487        -0.133268     -1.373512      0.115817
O       2.14425      2.34875      0.29318        -0.218294     -1.445469      0.364949
O       1.71570      1.73684     12.82818         1.879053      0.906969      0.980807
O       1.64090     13.72118      0.49280         1.238330     -0.581646      0.591975
O       1.62068     13.50418     12.77752         0.676666      0.633642     -0.836833
O      13.98684      1.75363      0.53936        -0.891270     -0.266386     -0.699741
O      13.42545      1.81077     12.47600         0.010093     -0.951963      0.525692
O      13.59897     13.57284      0.48839         0.609117      0.639785     -3.140386
O      13.65303     13.56932     12.83885        -0.681507      0.461332      0.685516
O       1.95417      1.85565      4.47345         0.138159      0.005746      0.758293
O       1.97035     13.90992      4.51008        -0.531605     -1.250836     -1.254272
O      13.54692      2.05091      4.32139         0.152477     -0.236327      1.035710
O      13.78033     13.27928      4.22037        -0.938287      0.911033      2.993848
O       1.73917      1.81308      8.44406         0.431024      0.594398      0.523911
O       1.89023     13.76112      8.45054        -0.613227     -0.860006      1.986047
O      13.27806      2.11572      8.30671         1.059031     -0.408168      1.981920
O      13.54017     13.35902      8.21263        -0.964206     -0.451260     -1.488615
O       1.92060      5.93539      0.30193         0.053562     -0.841181      0.014857
O       1.86504      5.87711     12.97100         1.529902      0.211956     -2.334427
O      13.90554      5.82696      0.10228        -1.058740      0.085210      0.227617
O      13.78303      5.64397     12.69997        -0.221441      0.422277      0.018549
O       1.82390      5.98441      4.25624         0.196033     -0.588539      0.501189
O      13.66736      5.76840      4.18870        -0.045660      0.879091      2.912965
O       1.93663      5.77368      8.57095         0.601294     -0.292161      1.332938
O      13.79424      5.77975      8.95058        -0.249769     -0.885391     -1.353225
O       1.62151     10.02166      0.31758         1.013627     -0.616756      0.709235
O       1.98239      9.75470     12.52814         0.168478     -0.239302     -1.303585
O      13.75990      9.60058      0.53161         0.339926      0.594464     -2.454394
O      13.74850      9.98105     12.59198        -0.541443     -1.482600     -1.649589
O       1.98303      9.60026      4.33307        -0.243451      0.176829      1.356903
O      13.41579      9.39688      4.40019         0.436562      0.189085      0.155764
O       2.10954      9.32060      8.39659         0.370996      1.477606      0.187324
O      13.88885      9.37456      8.58913        -1.513917      2.163701     -0.833123
O       5.69355      1.82599      0.26051        -0.180166      1.293457      0.601280
O       6.01962      2.16846     12.46217        -1.043722     -0.339694      1.682937
O       5.99014     13.64865      0.13394        -0.050606      0.092193      1.020442
O       5.58632     14.04825     12.36422         0.369139     -1.524048      1.509450
O       6.09789      1.70290      4.37434        -0.861228      0.506689     -0.455164
O       5.83569     13.85753      4.27609         0.492474      0.029374     -0.303452
O       5.99437      1.99284      8.61255        -0.281112      0.163494     -0.363003
O       5.95798     13.91846      8.27170         0.164289     -1.293161      0.555725
O       5.94075      5.87823      0.28221        -0.018821      0.129298     -0.963992
O       5.67856      5.57399     12.71871         0.854155      0.844575      0.059303
O       5.89639      6.21907      4.21931        -0.154675     -1.520127      0.055518
O       5.36055      5.81217      8.70356         0.913313      0.060382      0.853081
O       5.77320      9.81718      0.33050        -0.335826     -0.096513     -1.509342
O       5.95054      9.87713     12.69972        -0.332835     -0.008574     -0.688242
O       5.99118      9.66160      4.19091        -0.736916     -0.130201      0.774426
O       5.80106      9.79132      8.50478        -0.222302     -0.026682      0.591396
O       9.87569      2.14838      0.09361         0.120488     -1.046176     -1.575159
O       9.71122      1.79849     12.96442         1.847383      1.787029     -2.569308
O       9.72696     13.86224     16.61577         0.195719      0.105413      0.005492
O       9.81400     13.22341     12.40572         0.215321      1.738490      2.129027
O       9.91755      1.99598      4.28489        -1.547070     -0.580880     -1.069487
O       9.64088     13.50974      4.31705         0.756138     -0.718770     -1.732877
O       9.68141      1.77787      8.28402        -0.252346      0.752392      1.841327
O       9.77148     13.62919      8.29287        -0.109520     -0.409222      0.230301
O       9.75442      5.74251      0.02061         0.742731      0.498281     -0.585024
O       9.75329      5.81179     12.62692        -0.024685      0.046027     -1.376862
O       9.63278      5.58326      4.70467         0.103905      1.085690     -1.282732
O       9.61854      5.92629      8.59612        -0.448673     -0.038627      0.354019
O       9.73263      9.19317      0.16532         0.745099      1.851021     -0.937176
O       9.75123      9.86821     12.80674        -0.058275     -0.979269     -0.736165
O       9.58208      9.90794      4.27930        -0.423270     -0.805711     -0.493149
O       9.56235      9.48679      8.86304        -0.519083      0.346265     -3.109114
O       3.98226      2.36966      2.47060         0.407409     -1.598992     -0.240106
O       4.07148      1.94313     14.51059        -1.288092      0.760317      0.313326
O       4.03386     13.45353      2.11515         0.229838      1.106006      0.675821
O       3.94009     13.53106     14.58303        -2.396775      0.443715      0.272864
O       0.10098      1.87205      2.46680        -0.607821      0.057122      0.274747
O      15.57107      1.97850     14.46818        -0.462269     -0.580679      1.278255
O       0.02940     13.64616      2.47965         0.461040      1.405358      0.720517
O      15.59553     13.69482     14.97812        -1.056312      0.368022     -0.249999
O       4.04252      1.75956      6.63175        -3.091626      0.926015     -0.527506
O       3.90848     13.67543      6.41453         0.161219      0.441765      0.678982
O      15.47049      2.13922      6.59245        -0.188014     -0.245580     -1.011328
O      15.39205     13.55091      6.53539         0.398808      0.217005     -0.376258
O       3.70086      1.75324     10.47613         0.881371      1.753487      0.467306
O       3.87880     13.70651     10.07322        -2.054078     -1.889310      1.777003
O      15.40739      1.51911     10.42845        -0.104741      1.264622     -0.578827
O      15.27379     13.66739     10.25841         2.341842     -0.166080      0.352782
O       3.94711      6.06445      2.13170         0.049675     -1.168070      0.812828
O       3.99653      6.07302     14.77543         0.204230     -0.579380      0.551725
O      15.57498      5.37670      2.21726         1.292869      1.225778      0.814941
O       0.14087      5.79073     14.55172        -1.857218     -0.803246      1.001583
O       3.71268      5.98268      5.98944         1.743821      0.103870      0.614382
O      15.57466      5.47963      6.58899        -0.333599     -0.142099     -1.093354
O       3.78095      5.76997     11.09029         0.295897      1.240165     -1.587676
O       0.01805      5.82233     10.81159         1.081045     -0.011154      0.056223
O       3.83403      9.89756      2.25221        -0.541268     -0.854596      0.125829
O       3.94371      9.78192     14.91075        -3.016278     -0.353598     -0.701265
O       0.04624      9.69488      2.64236         2.560480     -0.731926      0.425319
O      15.60216      9.82281     14.59174         1.391297     -0.470016      0.215730
O       3.95357      9.82872      6.19410        -3.712772     -0.160754      0.595570
O       0.01525      9.76191      6.36346         0.158078      0.443759     -0.066630
O       4.00781      9.71812     10.65776        -2.028281      0.276000     -0.461267
O      15.56691      9.43673     10.31188         2.678549      1.628075      1.824621
O       7.84700      1.79853      2.03301         0.864509      0.499322      0.467540
O       7.96978      2.12442     14.73328        -0.484866     -0.823416     -0.093537
O       7.96546     13.56169      2.04005        -1.555923      1.179348      0.833486
O       7.95462     13.68999     14.69858         0.099269      0.367982     -0.295723
O       7.79624      1.69070      6.55967         0.263722      0.822149     -0.602478
O       7.88347     13.77873      6.21336        -2.552908      0.160295      0.543333
O       7.80565      1.66260     10.86200         0.929814      0.827412     -1.580541
O       7.87613     13.90180     10.17641        -2.211331     -0.179825      0.824216
O       7.96047      5.88219      2.04863        -0.581800     -0.337569      1.411654
O       7.83743      5.60045     14.39697        -0.495132      0.240848      1.003349
O       7.50483      5.64125      6.63783        -0.020176      2.729423     -1.605256
O       7.72194      5.90072     10.59932        -2.589322      0.621932      0.464971
O       7.75319      9.70718      1.99591         1.807482      0.311337      0.896264
O       7.73924      9.86115     14.91173         1.680003     -0.421420     -0.493959
O       7.45688      9.65448      6.41681         3.898688     -0.257393      0.950903
O       7.67259      9.89504     10.60760         0.370821     -0.825304      0.429393
O      11.78386      1.93350      1.99886        -1.643917     -0.254302      0.346995
O      11.94052      2.15442     14.67161        -1.907576     -0.943360      0.854932
O      11.79832     13.39003      2.32303        -1.076353      0.141013      0.315801
O      11.69820     13.46479     14.90755         1.196328      0.575611     -0.271250
O      11.52349      2.29941      6.42107         1.025753     -1.730821     -0.172178
O      11.54137     13.45302      6.19213         1.407329     -0.987534      0.073695
O      11.46476      2.28845     10.39205         0.379601     -1.244550      0.115336
O      11.59050     13.27833     10.52406         1.279908      0.280496     -0.665327
O      11.63249      6.28631      2.39346         0.478455     -1.361158     -0.868306
O      11.77243      5.84698     14.39617         0.484617      0.646863      1.057173
O      11.55885      5.70708      6.71357         0.792816      1.480396     -0.766257
O      11.70307      5.66935     10.49590        -0.221967     -0.418053      1.069687
O      11.88889      9.56024      2.10206        -3.155570      0.981489      1.168322
O      11.96859      9.55834     14.76207        -2.985150     -0.671845      0.432401
O      11.52668      9.89774      6.32450        -0.088757     -0.571350      0.180145
O      11.68821      9.92580     10.41881        -0.099986     -0.058722      0.715435
O       1.93848      3.89448      2.58291         1.214602      1.058640     -0.472161
O       2.13936      3.90832     14.77239         0.247757     -1.177351     -0.104267
O       2.20782      0.20577      2.28531         0.213291     -2.340825      0.024615
O       2.16147      0.01903     15.24634        -0.911672      0.398605     -1.374470
O      13.36669      3.90068      2.13204         0.291847      0.101109     -0.139838
O      13.84079      3.85408     15.09312        -0.674157     -0.038345     -1.309715
O      13.54429     15.51784      2.48914         0.430651     -0.106756      0.280030
O      13.75748     15.51317     14.78014        -0.541267      3.245772      0.298658
O       2.42729      3.87819      6.18998        -1.526156     -0.434905      0.645086
O       1.68527     15.51453      6.43937        -0.219883      2.786241      0.354015
O      13.35856      4.02400      6.45178         1.248442      1.360147      0.177882
O      13.33653     15.52778      6.38596         0.564774     -0.413333     -0.502425
O       1.87934      3.83399     10.95313        -0.200604     -0.480832     -1.938948
O       1.94334      0.01064     10.95797        -0.490765     -1.741150     -1.609387
O      13.80259      3.56391     10.82840        -0.159899      1.641584     -1.022097
O      13.41803     15.51745     10.29259        -1.258820     -0.273303     -0.205890
O       1.94271      7.76874      2.21127        -0.486811      1.844252      0.373619
O       1.79125      7.70581     14.82942         1.346720      3.425104     -0.690997
O      13.89727      7.70780      2.01924         0.463642     -0.896377      1.231361
O      14.07452      7.69849     14.67072        -1.522473      0.303255     -0.352657
O       1.36577      7.68369      6.32556         1.930487     -0.305435     -0.130509
O      13.78705      7.70964      6.78388        -0.775797     -0.950962     -2.157945
O       1.89980      7.76209     10.50315         0.951698     -0.133924      0.945450
O      13.64548      7.75043     10.64384        -0.679755     -0.235632      1.397616
O       2.04023     11.73456      2.30973        -1.500509      0.388089      1.694664
O       1.85938     11.68888     14.76395         0.362517     -0.169042     -0.132235
O      14.29360     11.53739      2.20423        -1.830066      1.162500      0.790722
O      13.64946     11.58537     14.67472         0.218173      0.372819      0.540119
O       1.92504     11.73976      6.46477        -0.008551     -1.164777      0.412722
O      13.84778     11.45592      6.19765        -1.184689      0.947693      0.897051
O       1.91142     11.48833     10.11943        -0.093078      1.553920      0.904049
O      13.77102     11.63713     10.63477        -0.530187     -0.363558     -1.271120
O       5.92394      4.00247      2.23943         0.385872     -0.931358      0.611324
O       5.98103      3.88739     15.06994        -1.315379     -0.142005     -1.702027
O       5.62380     15.60356      1.94435         1.506470     -0.253944      2.800930
O       5.90116      0.16220     14.65595         0.541734      1.955750      0.172055
O       5.74632      3.75191      6.32045        -0.665271      1.348798      0.292775
O       5.60303      0.05160      6.48047         1.099267     -2.560404     -0.347707
O       5.78532      3.95548     10.53968         0.092339     -0.450224      0.138954
O       5.70507      0.05657     10.36492         0.752330     -0.184017      0.143554
O       5.83226      7.81837      2.19232         0.665002      0.565356      0.229361
O       5.94738      7.94924     14.62324         0.177915     -1.660868     -0.135176
O       5.61812      7.80418      6.44791         0.522348     -0.275395     -0.250381
O       5.87145      7.91461     10.67642        -0.239196     -1.490535     -0.268409
O       5.99714     11.68519      2.49753         0.108471      3.887685     -0.196294
O       5.93223     11.76745     14.41598        -0.460610      0.642097      0.110358
O       5.81359     11.76471      6.01648         0.707361     -0.104757      1.113523
O       5.78758     11.91843     10.34117         0.006309     -1.425614      0.505540
O       9.92242      3.85085      2.09450        -0.754193      0.315519      0.549891
O      10.03888      3.89328     14.42790        -0.695399     -1.581690      1.188978
O      10.13040      0.01395      2.27303        -0.970635     -0.796502     -0.240494
O      10.04264     15.46024     14.36552        -0.018041      1.179602      1.025108
O       9.68847      3.86464      6.52135        -1.815120     -0.485057      0.734911
O       9.87720     15.59314      6.07218         0.336810      0.303593      0.183562
O       9.31860      3.93561     10.55208         1.206629     -1.654915     -0.535233
O       9.96999     15.54022     10.48133        -0.308947      0.513408     -0.023902
O       9.62545      7.82285      2.16216        -0.010005      0.659166      1.484160
O       9.55718      7.71797     14.55172         0.780066      0.524586     -0.474207
O       9.57110      7.83990      6.25746        -0.762185     -2.461148      0.928820
O       9.87390      7.78413     10.82521        -0.420882     -0.276706      0.209178
O       9.73232     11.84780      1.65937         0.864432     -3.482460      1.415813
O       9.80963     11.58443     14.70341         0.234968      0.126118      0.917939
O       9.41278     11.53683      6.51027         0.292273     -0.582539      0.085417
O       9.45877     11.60874     10.42320         0.718424      1.074822     -0.602677
