  # total energy = -7844.42199862 
CRSYTAL
PRIMVEC
    15.6080000000000005    0.0000000000000000    0.0000000000000000
     0.0000000000000000   15.6080000000000005    0.0000000000000000
     0.0000000000000000    0.0000000000000000   16.6239999999999988
PRESSURE
3.33308 4.10922 0.556436 -0.541514 -0.052653 -0.0068
PRIMCOORD
320 1
Pb       3.54151      4.00772      4.07381         0.966723     -1.535920      0.445082
Pb       3.77249      3.99398      0.24234         0.267105      0.025521     -0.472109
Pb       3.70837      0.03410      4.25371         0.942494     -0.572091     -1.027325
Pb       3.89516     15.43905     16.27415        -0.239031      0.678911      0.418717
Pb      15.46084      3.96004      4.13082         0.607992      0.259476      0.855757
Pb       0.10415      3.73115     16.43491        -1.047720      0.074065     -0.174548
Pb       0.16043     15.41955      4.32827        -0.626110      0.142818     -0.211369
Pb       0.13643     15.37788      0.05542        -1.378237      1.081865     -0.854534
Pb       3.93662      3.90942      8.34286        -0.077756     -0.274854      1.412214
Pb       3.87920     15.52257      7.93431         0.815010      0.769592      1.883920
Pb      15.55962      4.03211      8.34947        -0.346845     -0.972135     -0.073756
Pb       0.18248      0.31330      8.57580        -0.431825     -0.138970     -1.049910
Pb       4.19618      3.79604     12.46590        -0.833790      0.680447      0.012985
Pb       3.90902     15.41976     12.36037        -0.907368     -0.048383      1.676422
Pb      15.47712      3.74211     12.41884        -0.384960     -0.390768      0.048630
Pb       0.13118      0.29104     12.54756        -0.471278     -1.658392      0.890860
Pb       3.73887      7.66298      4.31235         0.087698      0.379868     -0.309149
Pb       3.77763      7.95044      0.08708        -0.887455      0.068266      0.543852
Pb      15.36351      8.07187      4.26466         1.106299     -2.179728      0.136266
Pb      15.43574      7.85943      0.28077         0.099383      0.786083     -0.594723
Pb       3.66644      7.89238      8.17664        -0.288252     -0.749781      0.256893
Pb      15.53439      7.54605      8.40775         0.841716      0.432442     -0.552428
Pb       4.05886      7.96619     12.36507        -0.673797     -1.109689     -0.762999
Pb       0.06610      7.69060     12.69275        -0.219964      0.722368      0.638537
Pb       4.14927     11.45872      3.84163        -0.545603      0.996138      1.461855
Pb       4.13245     11.57316     16.37595        -1.049961      0.428964      1.227969
Pb      15.34950     11.71392      4.39035         1.095681      0.701051     -0.019231
Pb      15.60708     11.67107      0.18083         0.504828     -0.391005     -0.291643
Pb       4.14826     11.67882      8.56388        -0.508943     -0.074712     -1.065995
Pb       0.04556     11.39626      8.68196        -0.995983      0.796283     -1.755398
Pb       3.49568     11.72436     12.26062         1.926784      0.129269      0.232149
Pb       0.01905     11.63905     12.41874        -1.130838      1.068908      0.805987
Pb       7.72091      3.97402      4.43535         0.023387      0.303145     -0.674508
Pb       7.87737      3.70352      0.21941         0.184521      0.030937     -0.702905
Pb       7.33877      0.18798      4.03215         1.291625     -0.916893      0.534021
Pb       7.88567      0.26139      0.23447         0.387910     -0.102128     -0.536918
Pb       8.11688      3.87952      8.75021        -1.450237      0.353396     -0.921005
Pb       7.84961      0.20193      8.35916         0.159140     -0.170259     -0.749846
Pb       7.83768      3.58102     12.69792        -0.570574      0.682372      0.092126
Pb       7.60065     15.31790     12.36890         1.203067      1.642860      0.741205
Pb       7.92883      7.73243      3.97323         0.297659      0.641446      0.759189
Pb       7.97805      7.79361     16.36002         0.046051      0.813923      0.932945
Pb       7.88693      7.57266      8.14694        -0.340194      0.449223      0.572451
Pb       7.69787      7.62796     12.47422         0.008907      0.241123     -0.391653
Pb       7.69088     11.80718      4.32444         0.166065     -0.505442     -0.010370
Pb       7.56420     11.35631     16.61638         0.483061      0.393711      0.612900
Pb       7.57251     11.91868      8.66266         2.229915     -0.873007     -0.692293
Pb       7.56567     11.95188     12.48099         0.262126     -1.745442     -0.124472
Pb      11.94333      4.12278      4.02025        -0.894155     -0.524883      0.950838
Pb      11.69839      3.80609      0.18114         0.858111     -0.106263     -0.116461
Pb      11.49643      0.22788      3.81688         0.333101     -1.801813      0.557374
Pb      11.55859     15.49236     16.54588         0.475547      0.220210      0.972946
Pb      11.56218      3.74439      8.18756         0.831414     -0.139735      0.707860
Pb      11.40051      0.00327      8.40194         0.531980     -0.617260     -1.112178
Pb      11.79102      4.14671     12.58121         0.211950     -1.052614     -0.254682
Pb      11.80309      0.23557     12.40217        -0.295998     -1.179206      0.644484
Pb      11.90149      7.99202      3.91198        -1.509171     -1.762558      0.399324
Pb      11.38518      7.76044     16.53151         1.731207      0.452522      0.004906
Pb      11.28456      7.84699      8.01506         0.742995      0.624294      1.545326
Pb      11.84121      7.88096     12.21437        -1.777687      0.857640      2.074457
Pb      11.64693     11.91845      4.34636        -0.593549      0.944604      0.265921
Pb      11.55375     11.78573      0.33633         0.907328      0.416053     -1.105515
Pb      12.05240     11.31865      8.26634        -1.243224      2.189832      1.512119
Pb      11.65042     11.79782     12.43333         0.214772     -0.585112     -0.140564
Ti       1.95055      1.95626      2.03162        -0.679010     -1.260740      1.357502
Ti       1.94423      1.98481     14.55257        -0.913965     -1.379573     -0.625755
Ti       2.01236     13.77922      2.10959         1.558887     -2.215238      2.443749
Ti       2.00707     13.43138     14.70083        -0.855944      2.151495     -0.775667
Ti      13.76665      1.96949      2.23544         0.582702     -3.116725     -2.979149
Ti      13.52234      1.81224     14.77954         2.738711      1.053075     -0.347652
Ti      13.69960     13.69241      2.24470        -1.784583     -0.187844     -1.132177
Ti      13.69911     13.55691     14.72098         0.499745      0.509506     -1.253528
Ti       1.91242      1.89248      6.28815        -2.267612     -0.618015      0.995638
Ti       2.12176     13.49535      6.24161        -1.303295     -1.241897      0.867108
Ti      13.50968      1.84602      6.38886         0.075882      0.140340      2.119134
Ti      13.82997     13.69987      6.42826        -0.798524     -1.117450      0.760095
Ti       2.12448      1.85027     10.58459         0.223177      1.056818     -0.007388
Ti       1.77679     13.54280     10.20352         1.171857      1.167858      2.337280
Ti      13.58544      1.76697     10.37940         1.181611      2.179711      1.098578
Ti      13.60057     13.64177     10.47729         0.555893     -1.227025     -1.770368
Ti       1.88150      5.80464      2.20229        -1.384832      1.466616      2.825508
Ti       2.07084      5.79105     14.58084        -1.237456      1.179977     -0.069724
Ti      13.73847      5.74419      1.94570        -1.712440      1.649008      0.904447
Ti      13.66781      5.74168     14.65045         0.501685      0.360251      2.516666
Ti       1.92600      5.50726      6.33543        -1.801384      6.540636     -0.048050
Ti      13.51185      5.94146      6.53701         1.558982     -2.495042     -0.569075
Ti       1.83182      5.87646     10.73957         2.603797     -0.942445     -1.141361
Ti      13.58511      5.88634     10.50415        -0.624617     -2.316693     -1.471780
Ti       2.00656      9.69337      2.47986         0.096741      0.885097     -2.547071
Ti       1.91606      9.65142     14.59343        -1.583796      0.271294      0.714496
Ti      13.61982      9.95080      2.33634         2.577160     -1.741868     -2.573865
Ti      13.68160      9.85389     14.72864        -1.888494     -2.195411     -0.228513
Ti       2.13467      9.75490      6.20835         0.185119     -0.008129      1.844422
Ti      13.71302      9.68996      6.32961        -1.345179      1.271630      0.372520
Ti       1.85246      9.69202     10.38106         1.923267     -2.032262     -1.407415
Ti      13.76924      9.69881     10.68473        -2.806248      0.897999     -0.768867
Ti       5.71601      2.00831      2.00734         0.464203     -1.274200      1.663020
Ti       5.70000      2.09457     14.65320         1.323571     -0.681466      0.237115
Ti       5.96259     13.59342      2.05949        -2.012877     -1.595210      2.341271
Ti       6.10773     13.80125     14.78843        -1.626065      0.018941     -1.360299
Ti       5.67688      2.06126      6.20585         3.158668     -1.961175     -0.718260
Ti       5.94581     13.57874      6.30859        -0.852601     -0.513892     -1.854726
Ti       5.87625      1.95706     10.63179        -0.848053     -1.196182     -0.669519
Ti       5.79708     13.67106     10.55917        -1.331416     -0.695347      2.546821
Ti       5.99079      5.70019      2.21393        -0.446433      0.196002     -0.965681
Ti       5.97430      5.88256     14.88546        -1.676842     -0.647353     -2.247806
Ti       5.69153      5.74815      6.45089         3.614695      1.666671     -0.573920
Ti       5.86551      5.76775     10.32883        -1.151991      0.642090     -0.289189
Ti       5.98044      9.47292      2.19131        -0.682180      1.921370      1.847052
Ti       5.73601      9.71999     14.39856         1.896712      0.346514     -0.971681
Ti       5.95721      9.69080      6.44902         1.105784      1.190952     -2.181701
Ti       5.98131      9.67331     10.35049         0.371320      0.632475      1.218424
Ti       9.74173      2.08178      2.17421        -0.659613     -2.093152     -0.133012
Ti       9.75950      1.86631     14.68367        -0.959007     -1.177343      3.924232
Ti       9.50554     13.52904      1.83217         1.489398      2.560664      1.699000
Ti       9.75431     13.52610     14.55429         1.705022      1.556539     -0.053108
Ti       9.67689      2.00581      6.08370         2.393032     -2.501489     -1.083234
Ti       9.78433     13.69581      6.36908         0.361019      0.078992     -0.313940
Ti       9.81604      2.01707     10.74527        -0.742285     -1.048005     -1.307971
Ti       9.89491     13.71608     10.44266        -1.234165     -0.886082      0.085660
Ti       9.77714      5.77517      2.06077         1.027315      0.351304     -0.493211
Ti       9.76265      5.68977     14.67802         1.424319      0.196933      0.311540
Ti       9.79455      5.75416      6.31869        -1.655353     -0.180478     -0.727360
Ti       9.68510      5.83870     10.58759         0.072510      0.963369     -0.401641
Ti       9.81990      9.93661      2.09959        -1.888473     -0.877734      2.513226
Ti       9.74827      9.94012     14.47792         1.427321     -1.435467     -1.267873
Ti       9.72820     10.00077      6.28816        -1.610126     -0.468491     -0.194733
Ti       9.76921      9.78163     10.42259        -0.080688      0.825063     -0.981078
O       1.88942      2.11146      0.33346         0.921544     -0.717023     -3.545652
O       1.86016      2.08506     12.69311         0.027238     -0.831165      0.398506
O       1.84760     13.60432      0.38029         0.762323      0.300698     -0.278577
O       2.03287     13.61660     12.91573        -0.051748     -1.451703     -0.706612
O      13.80607      1.54836      0.40934        -0.623848      1.544484      0.902048
O      13.79565      2.02832     12.88580        -0.515089     -0.515101      0.009650
O      13.80948     13.61798      0.39501         0.104993      0.080445     -0.914743
O      13.64419     13.47446     12.78357        -0.105146      0.165264      1.691833
O       1.78793      1.91961      4.54038         0.545809      0.168075     -0.422522
O       2.07142     13.90905      4.51254         0.310797     -0.632839     -1.023070
O      13.50664      1.89009      4.67676         0.702310      0.216837     -2.788841
O      13.45102     13.45361      4.62878         0.516891      0.381656     -0.862912
O       2.09525      1.85574      8.78433        -0.288977     -0.372925     -0.895399
O       1.73882     13.27166      8.50339         0.504340      1.243896     -0.825836
O      13.83015      1.79754      8.66162        -0.695628     -0.145430     -0.146441
O      13.54540     13.33833      8.60902         1.229179      1.266198      0.519730
O       2.19693      5.88875      0.52964         0.548275     -0.050473     -3.402677
O       1.89982      5.93217     12.67581        -0.137191     -0.484394     -0.246583
O      13.22779      5.69859      0.30915         1.225543      0.117471     -1.359248
O      13.66318      5.57075     12.90072         1.049532      0.708854     -2.549035
O       2.06945      5.79461      4.21540        -0.623970     -0.878631      2.253462
O      13.80864      5.40597      4.81247        -1.014407      0.851095     -1.390528
O       1.86886      6.04328      8.33798         0.440880     -0.409240      0.680454
O      13.48211      5.96015      8.60877         0.328946     -0.171338      0.714364
O       1.78900      9.65382      0.33267         0.663544     -0.574743     -0.262607
O       1.96155      9.45484     12.76246        -0.551654      1.860184      0.100149
O      13.98670      9.93378      0.36954        -0.546775     -1.385587      0.908794
O      13.67445      9.61542     12.71494         0.272869      0.452826     -0.212314
O       2.20393      9.63703      4.45100        -0.345236     -0.243842     -0.361298
O      13.51839      9.59054      4.41081         0.481257      0.762760     -0.254161
O       1.76483      9.71325      8.33760         0.581890     -0.554940      2.737280
O      13.83385      9.86972      8.76970        -0.457153     -1.397900     -1.432418
O       5.95187      1.89287      0.24068        -0.907576      0.492550     -0.750457
O       5.86064      2.03778     12.84990        -0.652922     -0.032261     -0.480549
O       6.13793     13.70168      0.33127        -0.258197     -0.087869     -3.793596
O       5.89579     13.82303     12.66355        -0.892296     -1.662573      2.090740
O       5.69657      1.75122      4.39959         0.378341      0.868944      0.497612
O       6.14795     13.57891      4.45632        -0.749759      0.497855      0.078143
O       5.74496      1.85310      8.89176         0.492584      0.110000     -2.244645
O       5.92631     13.52607      8.87537        -0.093960      0.400310     -4.000554
O       5.68613      5.51094      0.28150         0.495560      0.560508      1.537961
O       5.97658      5.93103     12.95710        -0.179643      0.178245      0.301487
O       6.30136      5.95558      4.64833        -1.073806     -0.741819      0.251321
O       5.70619      5.60917      8.53066        -0.202178      0.292883      0.210050
O       5.80746      9.82303      0.48094        -0.523518     -0.877484     -2.930236
O       5.85814      9.51868     12.55725         0.176620      0.452198      2.109130
O       5.89753      9.63056      4.40126         0.590836     -0.473222      0.960243
O       6.02215     10.11278      8.58725        -0.868395     -1.045587      0.307478
O       9.74246      1.65347      0.33163         0.027530      0.544580      0.334426
O       9.73691      2.00616     12.99509         0.358619      0.498442     -3.653480
O       9.35428     13.12798      0.10153         1.034177      1.723768     -0.251127
O      10.06985     13.41502     12.74706        -0.809374      0.871089      0.326905
O       9.78676      2.00574      4.18000         0.148570     -0.258597      1.158680
O       9.72012     13.34899      4.55422        -0.014044      0.883235      0.347811
O       9.60293      2.05008      8.88876         0.300159     -1.175752      0.513563
O       9.60106     14.04174      8.67950        -0.424013     -0.806452      0.138184
O       9.98913      5.83778      0.17394        -0.423794     -0.138037      0.687120
O       9.45091      5.52119     12.92188         0.190099      0.406103     -0.183579
O       9.74116      5.50689      4.54582        -0.246109      0.524123      0.480684
O       9.81522      5.71135      8.74228         0.377798     -0.254530      0.050947
O       9.73226      9.73902      0.36170         0.612331     -0.175172     -1.027338
O       9.85454      9.90117     12.65905        -0.226855     -0.152016      0.241525
O       9.59648      9.73177      4.35776         1.172719      0.354621      0.924585
O       9.89603      9.84689      8.55630        -0.876170     -0.925264      1.356941
O       3.88878      2.04342      2.21376         0.421433     -0.166110      0.272038
O       3.81250      1.99337     14.69081         0.842272      0.060439      0.974423
O       4.01825     13.47458      2.36316        -2.490727      0.701881     -0.456289
O       3.98902     13.56115     14.98612         1.002994     -0.198218      0.207539
O       0.14415      1.67154      2.11261        -2.415426      0.413943      1.872297
O       0.09909      1.81844     14.84905         0.514489      0.922490      0.401045
O      15.49518     13.77577      2.64114         3.006466     -1.036402     -0.013000
O       0.08873     13.44220     14.96930        -1.085941      0.658239     -0.211898
O       3.96517      1.83196      6.38336        -3.139385     -0.102470      0.939963
O       3.99281     13.72207      6.64990        -1.545326     -0.377286     -0.322099
O      15.60013      2.05994      6.79237         0.856904     -0.232688     -0.485186
O       0.18153     13.47452      6.23362        -2.056724      0.140595      0.121959
O       3.96737      2.03010     10.81655        -1.271909     -0.757281      1.038272
O       3.83020     13.34248     10.41687        -0.837213     -0.195939      1.048144
O       0.03047      1.63577     10.73885        -0.047452      1.150612     -0.684398
O      15.55794     13.61023     10.75192         0.719977     -0.140717     -0.423230
O       4.13710      5.58649      2.71640         0.375932      1.296089     -1.775054
O       3.85044      6.21578     14.98181         0.015694     -1.302892     -0.480866
O      15.56843      5.74541      2.42350         1.448767      0.150434     -0.548575
O       0.01059      5.82641     14.99245         0.820368     -0.068516     -0.258360
O       3.88860      5.68237      6.40639        -0.503774      0.624107     -0.069418
O       0.01474      5.47099      6.53091        -0.226983      1.061469      0.225205
O       3.85890      6.13297     10.47444        -1.033346     -0.805712      0.909843
O      15.52417      5.84428     10.30327         1.344592      0.255897      1.408498
O       3.96954      9.55789      2.50030        -0.042150     -0.728021     -0.526208
O       3.86196      9.92554     14.54435         1.081465     -1.271520      0.870583
O       0.12600      9.55024      2.69653        -2.472352      0.630391     -0.503327
O      15.47795      9.94768     14.64581         3.327855     -1.508836     -0.080201
O       4.15774      9.69927      6.59206        -3.697710     -1.005265      0.343169
O      15.44366      9.69811      6.30233         2.352824      0.266758     -0.225706
O       3.93452      9.84394     10.58367        -0.996646     -0.880974     -0.329057
O      15.56205      9.60214     10.52117         1.761245      0.146828      0.806261
O       7.81210      2.07264      2.24736        -0.559166     -1.553907     -0.062815
O       7.74816      2.03429     14.97873         0.468251      0.304719     -0.275508
O       7.79705     13.20280      2.36905        -0.341236      0.785897      0.094146
O       7.91844     13.56419     14.46228        -2.121902      0.331866      0.459225
O       7.97333      1.98074      6.31539        -3.491462      0.184066      0.679081
O       7.62469     13.21493      6.64212         3.157517      0.860428      0.616139
O       7.66579      1.81987     11.08024         1.841186      0.290951     -0.919832
O       7.75476     13.49656     10.86913         0.862752      1.247357     -0.812739
O       7.97232      5.55782      2.48458        -1.988945      0.658758     -0.353142
O       7.76506      5.70597     15.16041         1.191091     -0.378862     -0.306923
O       7.77881      5.47247      7.03518         1.319595      0.666434     -1.664075
O       7.71627      5.69263     10.52886         0.108544      0.100904      0.354516
O       7.82066      9.80318      2.27839         1.598174     -0.257046     -0.005777
O       7.88942      9.78740     14.92263        -0.291655     -0.217473     -0.505232
O       7.82662      9.95022      6.75977         0.850226     -0.248947     -0.780584
O       7.85286      9.86148     10.67940         0.212047     -0.123549     -0.208144
O      11.81398      1.93457      2.30492        -0.037519      0.289816      0.203817
O      11.74298      1.71962     14.95037        -0.697315     -0.272918     -0.318711
O      11.61733     13.60468      2.13927        -0.202317     -0.446074      0.076358
O      11.74384     13.77001     14.95569         0.965190     -0.880163      0.109165
O      11.59419      1.52641      6.63253         0.835478      1.439428     -0.022466
O      11.57070     13.73255      6.64840         0.580156      0.300110     -0.040572
O      11.71024      2.05393     10.61357        -0.697678     -0.957973      0.721216
O      11.72600     13.74404     10.52113         0.620306      0.327445      0.864852
O      11.68732      5.65847      2.33015         1.296965     -0.778584      0.935468
O      11.72086      5.41321     14.49643        -1.911490      1.492308      1.341325
O      11.68919      5.98907      6.55036        -1.466186     -0.736778     -0.214676
O      11.59639      5.89566     11.01023         0.366124     -0.531986     -0.673736
O      11.85512      9.61588      2.33346        -2.235440      0.664506     -0.458958
O      11.70044      9.86084     14.77071        -0.096164     -0.852882      0.570407
O      11.62540      9.78690      6.67377         0.820466     -2.050118     -1.500108
O      11.72538      9.43223     10.47395         0.128479      0.353947      0.849758
O       1.90942      3.78121      2.16651         0.472879      2.543573      1.587210
O       1.69913      3.92165     14.66505         1.640191      0.689238      0.669348
O       2.08333     15.59556      2.49070         0.133135     -0.366420     -0.500127
O       2.16602     15.51741     14.71522        -0.646054      0.890057      1.112445
O      13.91050      3.84948      2.40594        -0.932165     -1.061663      0.079909
O      13.63379      3.80599     15.03640         0.730752     -1.001225      0.387982
O      13.64456     15.39747      2.52668        -0.703372      3.881716      0.843645
O      14.03154      0.05237     14.90344        -1.332850     -2.601498     -0.399306
O       1.96728      3.89201      6.71026         0.964507     -4.696714      0.176379
O       1.73483      0.02054      6.48271         1.380932      0.151432      0.811790
O      13.38931      3.74082      6.77984         0.036136     -0.074883      0.247514
O      13.75199     15.45165      6.70611         0.558387      1.151867     -0.123633
O       2.09736      3.79250     10.66621        -1.038749      2.408316     -0.040511
O       2.15511     15.33227     10.82903        -0.884369      1.234112     -1.255308
O      13.54868      3.90853     10.73830         0.889366      0.200060     -0.264377
O      13.58432     15.56824     10.82770        -0.021709      0.143303     -0.191571
O       2.02218      7.78893      2.42139         0.307571     -2.523617      0.090783
O       1.88382      7.79333     14.74251        -0.298150      0.121261      0.673546
O      13.69148      7.62075      2.29217        -0.039744      0.414383      0.584637
O      13.68218      7.57315     15.16374        -0.530165      1.227557     -0.750903
O       2.00752      7.86745      6.36546         0.399580     -0.728624      0.125487
O      13.70861      7.72725      6.46720        -0.162790      0.901831      0.273837
O       1.85080      7.92508     10.92164        -0.147346     -2.067969     -1.440514
O      13.64958      7.66545     10.94971         1.199968      0.446797     -0.785350
O       1.76856     11.49478      2.63056         0.663453      2.111948     -0.566567
O       1.96256     11.67414     15.04721         0.502703     -2.053308     -0.582586
O      13.66182     11.69442      2.28626         0.098658      0.116937      1.167117
O      13.77729     11.57640     14.95059        -1.184436      3.700409     -0.131105
O       2.05313     11.60404      6.43051         0.112034      0.772754     -0.523463
O      13.54483     11.61816      6.40227         0.319786     -0.985402      0.290451
O       1.78476     11.50651     10.67617        -0.362557      1.547451      0.208967
O      13.70004     11.67127     10.61186         0.125673     -0.901260      1.431251
O       5.97216      3.71544      2.53823        -0.372433      1.985967     -0.319085
O       5.62602      3.93651     14.62797         0.279500      0.691097      1.155805
O       5.69524     15.40995      2.43225         0.970222      2.105623     -0.223339
O       5.87556      0.03982     14.64325        -0.095959     -1.368358      1.274559
O       5.71778      3.85452      6.47883         0.140224     -0.546916     -0.170319
O       5.93266     15.52040      6.49449         0.089943      1.310188      0.716998
O       5.71600      3.85146     10.62872         0.186110      1.415106      0.748786
O       5.49198     15.53654     10.84951         2.078039      0.272858     -1.252462
O       6.20813      7.61919      2.08775        -0.634754     -1.482169      0.576908
O       6.26509      7.90386     14.86179        -1.948800     -0.300662     -0.049692
O       6.05687      7.76209      6.79289        -0.919144     -0.646613     -0.405318
O       6.02275      7.74030     10.55810        -0.280052      0.511004      0.071982
O       5.65935     11.57962      2.29354         1.695477      0.602061     -0.409452
O       5.91036     11.64903     14.79094         0.176511     -0.270400     -0.107796
O       5.60172     11.67497      6.43498         0.502635      0.158756      0.477889
O       5.88771     11.65589     10.85954        -0.359794     -0.188316     -0.319682
O       9.67410      3.82894      2.13047         1.202706      0.785885     -0.313271
O       9.99598      3.56749     15.45800        -2.018827      2.013316     -2.353453
O       9.58996     15.47079      2.13553         0.037721     -0.778699      0.345807
O       9.72734     15.49914     14.89724        -0.155200      0.055572      0.144686
O       9.98404      3.74623      6.47871         0.147952      1.575908      0.683703
O       9.63832      0.02247      6.73375        -1.045447      0.102276     -0.664153
O       9.54145      3.86588     10.78413         0.407841     -0.453263      0.635337
O       9.69873     15.56645     10.96094         0.608669      1.546179     -0.006410
O       9.99492      7.51117      2.48349        -0.951662      2.183931     -0.311113
O       9.82069      7.66509     14.82085        -0.501834     -0.552832     -0.311548
O       9.48450      7.68821      6.45457         0.780742     -0.585851      0.040483
O       9.51239      7.69364     10.70544         0.594616      0.350186      0.216688
O       9.87518     11.74331      2.22115         0.709315     -2.455127      0.612984
O       9.86644     11.69406     14.80706         0.053738      0.023466     -0.090230
O       9.96069     11.74417      6.56115        -0.591929     -0.466915     -0.125479
O      10.00102     11.84998     10.50876        -0.482333     -1.937896      0.358445
