  # total energy = -7881.87802469 
CRSYTAL
PRIMVEC
    15.464    0.0000000000000000    0.0000000000000000
     0.0000000000000000   15.464    0.0000000000000000
     0.0000000000000000    0.0000000000000000   17.350608
PRESSURE
-0.887982 -1.21591 0.636024 0.123032 -0.030256 -0.000903
PRIMCOORD
320 1
Pb       3.83954      3.83245      4.36100         0.183662     -0.511725     -0.734765
Pb       3.86571      3.96839     17.25913        -0.185200     -0.987919      0.626098
Pb       3.74258     15.36793      4.31076         0.665778     -0.057731     -0.337909
Pb       3.82255     15.38590     17.17945         0.549256      0.602624      0.231646
Pb       0.14791      3.86034      4.36650        -0.978449     -0.696715     -0.248713
Pb      15.37325      3.73626      0.03741         0.102768      0.110695     -0.382101
Pb       0.11586     15.46060      4.28916        -0.675861     -0.051733     -0.589547
Pb      15.41644     15.33929     17.22864        -0.221090      0.294305      0.731980
Pb       3.73686      3.88913      8.53979         0.255997      0.008877      0.359873
Pb       3.78574     15.36969      8.82561         0.233596      0.337729     -0.827954
Pb      15.39814      3.78285      8.51395         0.087004      0.221942     -0.177633
Pb       0.05115      0.04166      8.63396         0.077461      0.053206     -0.104399
Pb       3.68236      3.87902     12.94585         0.093208     -0.180404      0.235120
Pb       3.76306     15.32504     12.97512         0.084940      0.503294     -0.129671
Pb      15.32998      3.83846     12.95734         0.473318     -0.015027      0.122273
Pb      15.41697      0.03189     12.97433        -0.047604      0.463071     -0.424039
Pb       3.81170      7.67440      4.22999         0.191426      0.546259      0.166281
Pb       3.69411      7.59384      0.19481         0.610140      0.239114     -0.958833
Pb      15.43887      7.73511      4.24993        -0.113050      0.113861     -0.366625
Pb      15.45502      7.72964      0.16111        -0.112445     -0.366725     -1.083738
Pb       3.86068      7.73339      8.64143         0.081347     -0.510368     -0.249851
Pb       0.11812      7.78410      8.50941        -0.776124     -0.196116      0.804705
Pb       3.87955      7.68009     13.04054        -0.669410      0.304525     -0.387538
Pb      15.43674      7.79924     13.01530        -0.302700     -0.031914     -0.206588
Pb       3.89604     11.58892      4.37629        -0.111257      0.072290     -0.824519
Pb       3.84528     11.65892     17.31179         0.080796     -0.510170     -0.637334
Pb       0.06615     11.55530      4.32714        -0.057177      0.290366     -0.504202
Pb       0.09911     11.61158     17.32580        -0.397870      0.180435     -0.468699
Pb       3.93981     11.59632      8.64407        -0.027592     -0.201959     -0.252121
Pb      15.42978     11.58942      8.58838        -0.216542     -0.555604      0.005709
Pb       3.77577     11.62598     13.01899         0.142457     -0.430246     -0.383569
Pb      15.39912     11.58346     12.86734        -0.086257     -0.373581      0.878327
Pb       7.60025      3.82313      4.33569         0.327285     -0.682187     -0.603145
Pb       7.67978      3.94326     17.25466         0.172068     -0.206035      0.178631
Pb       7.82633     15.33705      4.34020        -0.719942      0.662230     -0.259520
Pb       7.62250     15.34246     17.22284         0.204296      0.622000      0.067702
Pb       7.58661      3.87069      8.65328         0.470787      0.047027      0.118739
Pb       7.67660      0.08356      8.67892         0.193677     -0.392715      0.125033
Pb       7.59395      3.85388     12.91922         0.664742      0.644200     -0.155549
Pb       7.74751      0.09469     12.95469        -0.055490     -0.312329     -0.070587
Pb       7.72310      7.71120      4.24548         0.372488      0.415306      0.244955
Pb       7.77970      7.76361      0.03286        -0.294276     -0.145606     -0.453713
Pb       7.64075      7.66537      8.62394         0.309545     -0.078839     -0.496091
Pb       7.66970      7.78900     13.04199         0.243228     -0.514072     -0.590052
Pb       7.80836     11.56965      4.35788        -0.114886     -0.014684     -0.427247
Pb       7.75465     11.55833     17.24224        -0.234624     -0.216092     -0.399075
Pb       7.74533     11.56084      8.66093         0.154122     -0.266229      0.114086
Pb       7.66450     11.57159     12.92206        -0.258177     -0.216443      0.197845
Pb      11.42133      3.89322      4.40259         0.206178     -0.038233     -0.423426
Pb      11.53590      3.84649      0.05260         0.123559     -0.346129     -0.635922
Pb      11.65684     15.46310      4.24409        -0.104493     -0.308904      0.214119
Pb      11.52631     15.42640     17.32936         0.048905      0.077209     -0.359377
Pb      11.80246      3.88834      8.64380        -0.996429      0.049472     -0.039965
Pb      11.62889     15.44110      8.72095        -0.194745     -0.248815     -0.374232
Pb      11.56894      3.81247     12.99520        -0.027768      0.398237     -0.164373
Pb      11.56974     15.45584     12.96317         0.642809     -0.120139     -0.527792
Pb      11.69237      7.69311      4.28812        -0.336270      0.045623     -0.360082
Pb      11.70101      7.71773     17.28328        -0.731687     -0.144767      0.154182
Pb      11.56019      7.76894      8.65309         0.024132     -0.254715     -0.640369
Pb      11.58078      7.70541     13.09531         0.209394     -0.175384     -0.412804
Pb      11.65995     11.43312      4.37428        -0.007054      0.323629     -0.392728
Pb      11.53564     11.53721     17.23187        -0.137054      0.516991     -0.128149
Pb      11.62696     11.56271      8.55068        -0.077133      0.239824      0.680951
Pb      11.61613     11.54860     12.87267         0.254312      0.256717      0.030465
Ti       1.91704      1.89474      2.20928        -0.470065      0.486138      0.790918
Ti       1.93955      1.91565     15.33147         0.150405      0.828779     -0.781677
Ti       1.93592     13.53103      2.20301        -0.571423     -0.262611      1.872404
Ti       1.88127     13.58192     15.29672        -0.148862     -1.417376     -0.638897
Ti      13.43165      1.95239      2.40672         1.400307     -0.292362      0.722304
Ti      13.58258      1.86114     15.38462        -0.938251      1.194723     -0.304157
Ti      13.51805     13.45978      2.24056         0.416501      0.722482      0.205716
Ti      13.44485     13.52236     15.18364         0.911588     -0.300030      0.311270
Ti       1.95434      1.89085      6.56081        -0.045506     -0.489436      1.730306
Ti       1.95211     13.46543      6.71134         0.373864      0.595392     -1.120698
Ti      13.50804      1.85497      6.56674        -0.303490      0.940790      0.562041
Ti      13.60311     13.52488      6.69686        -1.747274      0.039322      0.137504
Ti       2.01274      1.91308     10.89915        -1.193750     -0.063732      1.097407
Ti       1.90975     13.52405     10.88782         0.594942      0.295354      0.150149
Ti      13.54598      2.01401     10.90576         0.324778     -0.940220      1.315165
Ti      13.64549     13.54562     10.96514        -2.082939      0.381558      0.997511
Ti       1.93556      5.70551      2.31647        -0.834302      0.207998     -0.645773
Ti       1.84304      5.73798     15.39906        -0.385655      0.385049      0.328577
Ti      13.53245      5.64637      2.23191        -0.160502      1.039030      0.559970
Ti      13.52503      5.76421     15.35617         0.232257     -0.462354      0.339346
Ti       1.95476      5.76794      6.52562        -0.030726      0.138821      1.410912
Ti      13.59728      5.80963      6.55287        -1.379914     -0.127453      1.257717
Ti       1.82906      5.82131     10.99752         0.481182     -0.009291     -0.687211
Ti      13.51867      5.88194     10.96119        -0.665776     -0.109950      1.952072
Ti       1.94837      9.63698      2.23779        -0.213407      1.040933      1.913617
Ti       1.83059      9.65542     15.34588         0.185545      0.002496      0.234486
Ti      13.57128      9.64215      2.16296        -0.837676     -0.118543      1.944920
Ti      13.44453      9.65793     15.31369         1.621990      0.472463     -1.710194
Ti       1.94742      9.63141      6.55876        -0.924898      0.137028      0.103587
Ti      13.50022      9.62410      6.64277        -0.098920     -0.199277      0.424965
Ti       1.90894      9.66592     10.97213         0.518185     -0.315205      0.372045
Ti      13.54654      9.63555     10.91371        -0.321072      0.336990      0.254871
Ti       5.72922      1.81766      2.25821         0.503661      0.339322      2.076728
Ti       5.80405      2.00506     15.24899        -0.233169     -1.083263      0.997311
Ti       5.82566     13.46068      2.27327         0.034410      0.387226      1.467701
Ti       5.80959     13.50974     15.23097        -0.857800     -0.464355      0.819346
Ti       5.75162      1.81258      6.68021        -0.159593     -0.233723     -0.358885
Ti       5.85360     13.47096      6.65003        -0.684668      0.711054      0.333050
Ti       5.78751      1.94087     11.02575        -0.482473      0.087734     -0.253238
Ti       5.79105     13.53650     10.98603        -0.250467     -0.619204      2.284586
Ti       5.74610      5.73965      2.35156         0.866804      0.193280     -0.141878
Ti       5.70354      5.83100     15.28009         1.259330      0.150669      0.462210
Ti       5.76565      5.63632      6.53172         0.205099      1.943548      1.956982
Ti       5.68515      5.79621     11.00316         0.654858      0.041772      0.350519
Ti       5.81415      9.58592      2.27436        -0.000311      1.382565      0.401877
Ti       5.62488      9.57056     15.34642         0.549803      0.692639      0.976426
Ti       5.79448      9.63246      6.58033         0.284035     -1.048328      1.167347
Ti       5.76956      9.55617     11.00776        -0.768731      1.560639      0.938477
Ti       9.60570      1.88982      2.25616        -0.502005      0.091275     -0.031776
Ti       9.65643      1.96187     15.31847         0.369493      0.380763      0.314970
Ti       9.71901     13.48378      2.38590        -0.174341     -0.116575     -0.277767
Ti       9.64828     13.54127     15.15222        -0.271836     -1.053430     -0.105204
Ti       9.62376      1.95207      6.74866         0.661554     -0.223050      1.097370
Ti       9.60713     13.52184      6.67055         0.742563      0.410373      0.247443
Ti       9.67623      1.86986     10.97299         0.183597      1.149145      0.815468
Ti       9.57479     13.40946     11.01399         2.083943      0.619437      0.775848
Ti       9.62403      5.75491      2.39177         0.116482      0.216757      1.471243
Ti       9.68917      5.83188     15.36647        -0.145598      0.359697      0.881248
Ti       9.68781      5.72832      6.67189         0.229343      0.865989     -0.192252
Ti       9.69821      5.79156     10.92354        -0.729254     -0.258673      1.293865
Ti       9.71764      9.63692      2.24616        -0.166765      0.061483      1.684847
Ti       9.63025      9.67850     15.23626        -0.121920     -0.769861      0.582478
Ti       9.59273      9.66784      6.63268         0.541150     -1.047711      0.992833
Ti       9.67221      9.56522     11.00226         0.107150      0.561817     -0.395797
O       1.97011      1.90493      0.48859        -0.232252     -0.033150     -0.929917
O       1.92986      2.03341     13.53821        -0.098770     -0.386060      0.957780
O       1.89953     13.46492      0.47567         0.227498      0.290930     -0.640088
O       1.86793     13.49118     13.49028         0.258564      0.345867      0.972124
O      13.48234      2.10930      0.66901        -0.286344     -0.229359     -0.956816
O      13.54008      1.79102     13.64551         0.211422      0.108908     -0.746639
O      13.56579     13.51332      0.46419        -0.523835     -0.230305      0.559903
O      13.66359     13.71693     13.43283        -0.112654     -0.174560      0.264240
O       1.88594      1.87692      4.85101         0.408474      0.051066     -1.713899
O       1.90705     13.44160      4.86443         0.073498      0.331838      1.537605
O      13.49149      1.88417      4.80887        -0.197131     -0.117468      0.100404
O      13.54824     13.58574      4.97086         0.038411      0.005342     -0.361737
O       2.01984      1.76043      9.13508        -0.257515      0.621248      0.223610
O       1.90831     13.77325      9.07299         0.318660     -1.168799      0.631739
O      13.53216      2.05293      9.16703         0.377596     -0.041529     -0.508020
O      13.42967     13.46721      9.25527         0.538657      0.079791     -1.015946
O       1.90606      5.67182      0.49881         0.352549      0.503378      0.992799
O       1.85662      5.70903     13.66255         0.252926      0.218234     -0.899464
O      13.62091      5.50092      0.46376        -0.313121      0.451228      0.214842
O      13.40958      5.85488     13.63148         0.343319      0.181099     -0.975530
O       1.97572      5.72115      4.78258        -0.231296      0.349639     -0.735030
O      13.58536      5.80942      4.82716        -0.091933      0.133090     -0.831907
O       2.01861      5.89067      9.21526        -0.336116     -0.199998      0.242970
O      13.44624      5.80867      9.28082         0.254997     -0.250420     -2.347118
O       1.90418      9.71721      0.49946        -0.056718     -0.288900     -0.366886
O       1.86164      9.62346     13.58687        -0.070693     -0.034684     -0.104908
O      13.67110      9.84446      0.45482        -0.477639     -0.336856     -1.015089
O      13.50762      9.66575     13.47549        -0.084801     -0.645259      1.434254
O       1.72596      9.67468      4.80409         0.305952     -0.054899      0.115864
O      13.36513      9.55675      4.87347         0.561234      0.089807      0.145318
O       2.04025      9.56654      9.19718        -0.305769      0.429077      0.166211
O      13.52854      9.70360      9.16488         0.105878     -0.085661     -0.823277
O       5.82471      1.69425      0.57384         0.014834      0.039322     -1.370172
O       5.86753      2.01645     13.50813         0.049770     -0.011169     -0.542610
O       5.89116     13.64711      0.52910        -0.350676     -0.426808     -0.201913
O       5.58712     13.57105     13.50355         0.589449     -0.144280     -0.361538
O       5.94311      1.81431      4.92151        -0.693898      0.546280      0.508512
O       5.89817     13.44547      4.91598        -0.494489     -0.028725     -0.427785
O       5.80716      1.96418      9.26137        -0.135068      0.147667      0.158585
O       5.77667     13.47389      9.30931        -0.184451     -0.082113     -2.300242
O       5.62790      5.89674      0.62816         0.172780     -0.322232     -0.939115
O       5.77285      5.82034     13.50733        -0.258503      0.173758      0.398957
O       5.64896      5.50914      4.83419         0.305235      0.506588     -1.828148
O       5.53671      5.78064      9.24649         0.099768      0.132213     -0.612837
O       5.78165      9.58791      0.52497        -0.031206      0.231825     -0.370271
O       5.71240      9.58111     13.60669         0.194156     -0.317100     -0.747658
O       5.99786      9.66162      4.89566        -0.385801      0.327058     -1.192917
O       5.74599      9.56394      9.27586        -0.195941      0.111142     -1.421825
O       9.71810      1.88497      0.46432        -0.054978     -0.069241      0.618329
O       9.69731      2.09091     13.55585        -0.269173     -0.441051      0.316763
O       9.78867     13.43992      0.61457        -0.297866     -0.054320     -0.267468
O       9.53505     13.32454     13.41827         0.262092      0.787340      0.540962
O       9.59707      1.89746      5.01854         0.042888      0.339722     -0.437910
O       9.52623     13.49613      4.89398         0.538488      0.310953      0.491056
O       9.43859      1.83466      9.26612         0.518843      0.138073     -0.243517
O       9.61099     13.42664      9.27531        -0.024955     -0.142050     -0.459581
O       9.53188      5.80645      0.71524         0.195499      0.016041     -2.506203
O       9.87194      5.91485     13.67423        -0.699976      0.008137     -1.337407
O       9.75692      5.70528      4.87418        -0.279825     -0.241313      0.128711
O       9.54736      5.93065      9.22912         0.491999     -0.195117     -1.335143
O       9.62167      9.70605      0.50379         0.346491      0.226035      0.059165
O       9.75096      9.46213     13.45286        -0.621232      0.465880      0.716967
O       9.65289      9.64201      4.90243         0.055524      0.185833     -0.362734
O       9.56343      9.74291      9.19113         0.171097     -0.505034      1.267373
O       3.79083      2.13835      2.60603         0.696589     -0.586291      0.386772
O       3.87632      1.88554     15.63452         0.014880     -0.041570      0.124261
O       3.81173     13.45932      2.74244         0.614904      0.195012     -0.240320
O       3.79955     13.42230     15.75922         0.503643      0.809942     -0.331551
O      15.40251      1.90678      2.71618         0.577102     -0.329122      0.099920
O       0.01089      1.75316     15.70455         0.394251      0.732851      0.256307
O       0.02777     13.63625      2.70286        -0.416292     -0.051694     -0.311051
O       0.00719     13.52017     15.77644        -0.255971      0.218430     -0.572709
O       3.83928      1.99967      7.03950         0.261090     -0.385583     -0.371894
O       3.86540     13.57541      7.00337        -0.404293     -0.765645      0.264377
O       0.02019      1.96807      6.86428        -0.610090      0.027313      0.663523
O      15.41395     13.52228      7.11436         1.269519      0.037242      0.049598
O       3.86666      1.88986     11.38812        -0.004659      0.532777     -0.110975
O       3.81585     13.52830     11.35199         0.219366     -0.356570     -0.217164
O       0.04626      1.85889     11.40033        -0.189541      0.328160     -0.494934
O       0.08849     13.64666     11.18077        -1.049535     -0.189383      0.373008
O       3.87417      5.77441      2.71715        -1.568898     -0.027165      0.247389
O       3.85613      5.72313     15.77881        -0.139987      0.688316     -0.310814
O       0.03827      6.03607      2.55229        -0.249649     -0.783330      0.311976
O      15.42357      5.80785     15.60861         0.462645      0.127357      0.788498
O       3.83437      5.96541      6.90053        -0.732846     -1.120635      0.174977
O      15.43473      5.70218      6.96474         0.743679      0.337291      0.097469
O       3.75202      5.71263     11.52775        -0.106187      0.658014     -0.348117
O      15.33999      5.80076     11.43588         1.883249      0.227708      0.066032
O       3.78362      9.66976      2.82064         0.208181      0.401592     -0.480268
O       3.81573      9.68576     15.67013        -0.374821     -0.264995      0.304723
O      15.38294      9.59079      2.73467         0.531843     -0.092310     -0.435629
O      15.37236      9.80459     15.60945         0.657431     -0.796325      0.505023
O       3.78423      9.75813      6.70994         1.139088     -0.291043      0.659128
O      15.41921      9.69077      7.05277         0.273275     -0.158493     -0.096566
O       3.80065      9.71035     11.49122        -0.217877     -0.048852     -0.280592
O      15.45147      9.65705     11.37363         0.708065     -0.064653     -0.049426
O       7.70613      1.78807      2.77585         0.550811      0.491627     -0.562319
O       7.74943      1.91599     15.76289        -0.113553      0.209460     -0.410310
O       7.68817     13.52217      2.76438         0.457950      0.068981     -0.462331
O       7.67028     13.42672     15.58590         0.582267      0.201614      0.139593
O       7.62316      1.97221      7.19782         0.663338     -0.107519     -0.390958
O       7.68603     13.54608      7.03029         0.753905      0.167321      0.408913
O       7.71171      1.96486     11.44674         0.093356     -0.228615     -0.075641
O       7.78642     13.61466     11.38000        -1.762626     -0.369528      0.145503
O       7.64830      5.97854      2.68649         0.483333     -0.562280      0.392001
O       7.62450      5.72025     15.73625         0.502155      0.520610     -0.094218
O       7.70433      5.69875      6.90942        -0.573632      0.153397      0.248957
O       7.63516      5.88767     11.21690         0.186547     -0.194959      0.657578
O       7.70077      9.52344      2.68685         0.923335      0.481862     -0.323870
O       7.81728      9.63156     15.73856        -0.843968      0.112877     -0.321527
O       7.75106      9.54120      7.11388        -0.862453      0.596111     -0.162930
O       7.62778      9.58515     11.45119         0.754476     -0.000029     -0.039506
O      11.52768      2.05431      2.73930         0.131282     -0.235410      0.034149
O      11.60451      1.99634     15.73322        -0.848879     -0.414130      0.332233
O      11.55902     13.54447      2.71253         1.331400     -0.527909      0.197228
O      11.56177     13.45204     15.47314         0.034325      0.501389      0.403341
O      11.57332      1.90740      7.16705         0.143243      0.096858     -0.538313
O      11.59249     13.47828      7.17864        -0.332592      0.390487     -0.708806
O      11.66416      2.06663     11.38642        -0.891193     -0.796305     -0.378152
O      11.65549     13.57481     11.48065        -0.565297     -0.632625     -0.248496
O      11.54084      5.59347      2.64948         1.092714      0.219646      0.061362
O      11.63870      5.93620     15.69802        -0.772689     -0.653027      0.968016
O      11.61839      5.77035      7.03504        -0.019018     -0.029073      0.029643
O      11.62737      5.91780     11.43847        -0.821743     -0.386159     -0.369637
O      11.62523      9.69478      2.73092         0.112355      0.234344     -0.619208
O      11.57242      9.60855     15.71483         0.178163      0.370209      0.121256
O      11.58775      9.69450      7.08501        -0.517128     -0.135712     -0.278079
O      11.62980      9.72490     11.31121        -1.221597     -0.420735     -0.223344
O       1.76779      3.84982      2.70482         0.446330      0.751392     -0.145267
O       1.91988      3.85277     15.77636        -0.100684     -0.713176     -0.118535
O       2.00264      0.07201      2.63965         0.060865     -1.331291      0.249597
O       1.92626     15.44617     15.67599         0.271422     -0.256484     -0.089130
O      13.73374      3.90480      2.80635        -0.518385     -0.430653     -0.104329
O      13.56622      3.81740     15.62445         0.079216      0.169572      0.436450
O      13.42604     15.41832      2.67311        -0.049681      0.528932     -0.098994
O      13.50545      0.02667     15.83012        -0.456294     -1.361686      0.018098
O       1.88322      3.84036      6.86936         0.500249      0.899695      0.428106
O       1.93563      0.02209      7.04635        -0.190785     -0.663941     -0.463608
O      13.45323      3.83431      7.07660         0.775083      0.156710     -0.528361
O      13.57412      0.06678      7.13896        -0.311126     -0.941785     -0.263109
O       1.87348      3.86751     11.23874         0.101921     -0.470326      0.159322
O       2.04070     15.43182     11.34348        -0.301886      0.242282     -0.083364
O      13.56871      3.88749     11.41771        -0.222450     -0.226379     -0.211948
O      13.48930      0.05320     11.30392         0.311257     -0.071992     -0.028639
O       1.91695      7.76357      2.66590         0.514706     -0.429575     -0.214799
O       1.92978      7.72539     15.89151        -0.337451      0.064094     -0.239083
O      13.37643      7.65735      2.44016         0.322890      0.472222      0.248044
O      13.55172      7.74366     15.88417         0.356533      0.432819     -0.291519
O       1.81115      7.72739      7.00632         0.584353     -0.220611     -0.770931
O      13.47553      7.69573      7.04535         0.366855      0.145151     -0.148059
O       1.93988      7.72065     11.31651        -0.295397      0.172389      0.575526
O      13.56781      7.80914     11.27211        -0.066764     -0.934922      0.446743
O       1.79749     11.65333      2.67943         0.211814     -0.962046     -0.259845
O       1.90636     11.58941     15.81208         0.254229      0.018021     -0.385586
O      13.58055     11.59652      2.69134        -0.223379     -0.050563     -0.004691
O      13.53830     11.66160     15.37135        -0.523590     -0.324452      0.828133
O       1.91804     11.54762      7.04318        -0.216173      0.866179      0.170948
O      13.54739     11.55162      6.99707         0.028022      0.533761      0.125050
O       1.80811     11.61565     11.44908         0.684332      0.084612     -1.041885
O      13.56264     11.55580     11.31999         0.339980      1.239586      0.200562
O       5.83991      3.88533      2.59896         0.223174     -1.010751      0.420364
O       5.75390      3.81695     15.81682         0.187671      0.520572     -0.547646
O       5.74015      0.00202      2.85786        -0.569667     -0.884485     -0.547955
O       5.82382      0.00685     15.68530        -0.209146     -0.562404     -0.288249
O       5.69570      3.85435      6.99870        -0.072341     -0.603806      0.362765
O       5.75429     15.39074      7.15921         0.074864      0.635700     -0.355892
O       5.75644      3.94754     11.43621         0.000048     -1.416005     -0.201627
O       5.74778     15.45739     11.33842         0.322542      0.348666      0.251041
O       5.68276      7.80321      2.66711        -0.323922     -1.438027      0.817135
O       5.84256      7.69133     15.80014        -0.570228     -0.063516     -0.554364
O       5.71239      7.71931      6.85810         0.359199      0.104575      0.513343
O       5.60516      7.72948     11.38831         0.084081     -0.557381      0.276398
O       5.84341     11.56622      2.73371        -0.411109      0.259630     -0.328838
O       5.72116     11.56151     15.65340         0.394654      0.239097      0.341688
O       5.81948     11.57290      7.15328        -0.279370     -0.241941     -0.222893
O       5.75824     11.56526     11.36335         0.284978      0.510710      0.177686
O       9.58095      3.81737      2.68900        -0.547090     -0.174472      0.275675
O       9.61839      3.95831     15.72068         0.330019     -0.912842      0.356767
O       9.76196     15.42704      2.73297        -0.415154      0.576962     -0.128502
O       9.63202     15.38360     15.48698         0.149485      0.792426      0.324563
O       9.68345      3.87560      7.24730        -0.296604     -0.548653     -0.552675
O       9.71692      0.01204      7.25313        -0.834490     -0.361524     -0.754400
O       9.67209      3.87201     11.34016        -0.126576      0.288313      0.051308
O       9.70330     15.45311     11.47480        -0.258566      0.424880     -0.308199
O       9.78404      7.79697      2.82842        -0.411507     -0.664975     -0.560845
O       9.71323      7.75534     15.87880        -0.470579     -0.192990     -0.407862
O       9.64928      7.67191      6.97008         0.083517      0.249832      0.464114
O       9.57095      7.70974     11.34564         0.459579      0.476041      0.151198
O       9.73485     11.59041      2.88649        -0.594793     -0.692376     -0.740762
O       9.66652     11.57032     15.70494         0.079208      0.046488     -0.113736
O       9.48058     11.61354      6.96660         0.534032     -0.116601      0.186452
O       9.58405     11.51392     11.56880        -0.056962     -0.077610     -1.132713
