  # total energy = -7846.43441263 
CRSYTAL
PRIMVEC
    15.6080000000000005    0.0000000000000000    0.0000000000000000
     0.0000000000000000   15.6080000000000005    0.0000000000000000
     0.0000000000000000    0.0000000000000000   16.6239999999999988
PRESSURE
1.38616 0.531287 -2.39862 -0.013506 -0.000714 0.11142
PRIMCOORD
320 1
Pb       3.98325      4.12401      4.23595        -0.511377     -1.113753     -0.719785
Pb       3.91547      4.08115      0.15479         0.080957     -0.588598      0.206222
Pb       4.01248      0.12869      4.41657         0.589534     -0.142358     -0.374192
Pb       3.75483     15.43015      0.02782         0.010524      1.153170     -0.220375
Pb       0.14506      4.02780      4.27645         0.285872     -1.279523     -0.130712
Pb       0.03898      3.80577      0.10445         0.424219     -0.240033     -0.174801
Pb      15.46602     15.52451      4.48079         0.235568     -0.123899      0.040294
Pb       0.31773     15.44280     16.61049        -1.080965      0.815893      0.177638
Pb       3.88630      3.66213      8.29146         0.468240      1.669369      0.306931
Pb       3.80935      0.01415      8.36986         0.818841     -0.951514     -0.064123
Pb      15.40276      4.06667      8.14916        -0.451855     -0.650492      0.679977
Pb      15.30875      0.10898      8.06304         0.321154     -0.363393     -0.261999
Pb       4.06548      3.89765     12.38968        -0.427079     -0.364432      0.047813
Pb       3.81665      0.03581     12.42113        -0.251300     -0.513719     -0.400143
Pb       0.03667      3.66261     12.65456        -0.227947     -0.554911     -0.249274
Pb       0.00440      0.02555     12.29027        -0.090017     -0.180637     -0.659401
Pb       3.70392      7.92951      4.25452         0.012752      0.272081      0.266412
Pb       3.59788      8.07048      0.12843         2.007409     -1.219596      0.411056
Pb      15.53825      7.89831      4.10692         0.697858      0.811531      0.952196
Pb       0.12830      7.94557      0.14350        -1.178599     -0.256651     -0.143027
Pb       3.82636      7.92222      8.64370        -0.573147     -0.810207     -0.241822
Pb       0.02221      7.54878      8.47146        -0.008169      0.549617      1.070841
Pb       3.83646      7.70897     12.73112        -0.157089      0.437922      0.029229
Pb       0.22575      7.44061     12.77965        -0.358113      1.243694      0.331685
Pb       3.83256     11.84263      4.38900        -0.614774     -0.071222     -0.247834
Pb       3.67464     11.80964      0.00443         0.134534     -0.375861      1.025637
Pb      15.51369     11.61688      4.66410         0.614884      0.564489     -0.732847
Pb       0.05097     11.85299     16.60074        -1.043491     -0.380060     -0.230362
Pb       3.84643     11.68413      8.64615         0.326285      0.367312      0.352265
Pb      15.47864     11.23164      8.22005         0.368946      1.218981      1.021539
Pb       3.63743     11.83741     12.53669         0.747847      0.301527     -0.104639
Pb      15.42713     11.74917     12.39293         0.090458      0.775373      0.767957
Pb       7.72030      4.15609      4.17973         0.382521     -0.845271      0.201377
Pb       7.84029      3.65902     16.60801         0.018273      0.254616      0.059964
Pb       7.78446      0.10569      4.02886        -0.782181     -0.239300      0.671170
Pb       7.69933      0.17211      0.04815         0.374479      0.289408      0.048893
Pb       7.83364      3.94464      8.59565         0.684305      1.113954     -0.437432
Pb       7.76621      0.19007      8.30266         0.182816     -2.162936      1.016958
Pb       7.97730      3.79729     12.62121        -0.092426      0.291623      0.287036
Pb       7.67951     15.39583     12.71729         0.757726     -0.056206     -0.280987
Pb       7.73223      7.71359      3.97211         0.420491      0.366352     -0.534480
Pb       7.81268      7.94346     16.43252        -0.789896     -0.867071      1.259034
Pb       7.90484      7.76285      8.32672        -0.130534     -0.211365     -0.517531
Pb       7.59432      7.69307     12.77151         0.223615      0.396306     -1.401118
Pb       7.59518     11.92009      4.24387        -0.098996      0.405604      0.355779
Pb       7.61764     11.38802     16.60848        -0.268776      0.226888      0.192270
Pb       7.55683     11.85820      8.51463        -0.488446     -0.275507     -0.213359
Pb       8.09804     11.95899     12.78839        -1.551319     -0.161169     -1.225898
Pb      12.00930      3.95665      4.04051        -0.934761     -0.622222     -0.431736
Pb      12.00009      3.79685      0.04660        -0.728323     -0.508532      0.390586
Pb      11.88306     15.42840      4.11591        -0.816879      0.410238      0.198923
Pb      12.16387     15.53087      0.30480        -0.775281      0.229817     -0.526899
Pb      11.61055      4.04679      8.39931        -0.038359      0.353800      0.760561
Pb      11.44886      0.22375      8.12315         0.190610     -0.713945      0.483774
Pb      11.79444      3.80107     12.72787        -0.282953      0.435354     -0.780922
Pb      11.70375     15.52600     12.13185        -0.521365     -1.217984      0.918094
Pb      11.59111      7.63467      4.17180        -0.532553      0.805011     -0.337023
Pb      11.98900      7.72373     16.57005        -0.572375      0.333657      0.417028
Pb      11.66013      7.73454      8.43520         0.221933     -0.355828      1.194185
Pb      11.65893      7.71336     12.47691         0.109128      0.251285     -0.525730
Pb      11.61016     11.65205      4.32777        -0.113159      0.250125      0.083426
Pb      11.76320     11.62751      0.13244         0.496753      0.192585     -0.869850
Pb      11.65312     11.17732      8.17474        -0.482880      0.547328      0.539174
Pb      11.39100     11.50395     12.16713         1.438578      0.863130      1.386980
Ti       1.97776      1.93851      2.39107         1.120150      0.207589     -0.449591
Ti       2.00574      1.92942     14.66447        -0.228921      0.540793      1.023768
Ti       1.91871     13.65117      2.35585        -0.176461     -2.710392      2.429887
Ti       1.76272     13.68208     14.48338        -0.053025     -0.349421     -1.534890
Ti      13.86165      1.96737      2.02065        -2.121841      0.127798      0.753464
Ti      13.60554      1.88231     14.44901         2.139760     -1.217286     -0.489535
Ti      13.85642     13.55516      2.05110        -0.813345     -0.678492     -0.074662
Ti      13.54443     13.64718     14.34030        -0.855751     -1.132995      1.032418
Ti       2.05928      2.02217      6.28477        -1.383704     -0.675524     -1.978590
Ti       1.94725     13.76696      6.48725        -0.845279     -1.107087     -0.518342
Ti      13.48387      1.96753      6.07954         1.382177      0.307520     -0.620136
Ti      13.35982     13.53236      6.42482         0.742650      0.062325     -0.032229
Ti       1.94113      1.99313     10.09357        -1.149705      0.165592      1.908212
Ti       1.81357     13.66819     10.34190        -0.275783      0.121206      0.515471
Ti      13.57537      1.88239     10.24620         0.884989      2.147271      1.125204
Ti      13.48895     13.57194     10.07913         0.839215      0.160964      1.405377
Ti       1.87539      5.97570      2.42523         2.501320     -0.033001     -3.247545
Ti       1.92469      5.83135     14.99754        -0.402497     -1.227823     -1.149656
Ti      13.78050      5.99482      2.34939         0.110561     -1.883422     -1.796629
Ti      13.64706      5.83948     14.73713         1.433944      0.950914      0.834389
Ti       1.93312      5.85874      6.51373         1.888783      1.974265      0.074182
Ti      13.77977      5.75192      6.19360        -2.119361      0.842947      1.411945
Ti       2.02873      5.82669     10.65950        -0.117900     -0.036014     -4.979141
Ti      13.73386      5.82146     10.80290        -1.143579     -0.376632     -4.371938
Ti       1.82710      9.94205      2.18742         1.404645      0.696370      1.707126
Ti       1.88788      9.80867     14.85914        -0.573981      0.595821     -4.515030
Ti      13.54576      9.71067      2.19829         0.306944      0.892394      0.011148
Ti      13.61585      9.76953     14.66314        -0.249544      0.745739     -0.822288
Ti       2.00552      9.84935      6.48748        -1.432117     -0.396354     -0.007357
Ti      13.64876      9.51313      6.36824         0.152894      0.450858     -1.995187
Ti       1.93876      9.81242     10.86234        -1.380742     -2.045549     -0.245713
Ti      13.73630      9.74208     10.68791        -2.377802     -1.577730     -0.156650
Ti       5.79919      1.92952      2.10327        -0.474790      0.645595     -0.529316
Ti       5.80455      1.71178     14.63458         0.338237      1.505428     -0.020227
Ti       5.64323     13.74836      2.20961         0.813485     -0.483358      1.426512
Ti       5.74737     13.41510     14.81025        -0.842676      1.585425     -1.050484
Ti       5.95812      2.03468      6.41630        -1.271843     -1.284266     -2.500014
Ti       5.63966     13.58207      6.46958         1.487114      1.204447     -0.286540
Ti       5.81193      1.91704     10.36243         0.229006     -0.913515      0.123044
Ti       5.85583     13.72197     10.55998        -0.805886     -1.865890      0.103943
Ti       5.68548      5.96376      1.98619         0.576800      0.112243      2.039849
Ti       5.77762      5.72169     14.48692         0.420151     -0.936069      0.802814
Ti       5.80023      5.87884      6.09536         1.279785      0.602869      0.806254
Ti       5.93170      5.76812     10.54692        -0.140395      1.021429     -1.480446
Ti       5.77557      9.80843      2.32359        -0.935823     -0.485780     -1.741375
Ti       5.70816      9.63932     14.50211        -0.462925     -0.489766     -0.537791
Ti       5.78478      9.66343      6.16047         1.094358      0.991029      0.302570
Ti       5.64442      9.56084     10.52915         1.914415      1.381786     -0.036761
Ti       9.80903      2.01531      2.32623         0.826446      0.275964      0.140901
Ti       9.88291      1.96468     14.67589        -0.896610      0.023551      1.150779
Ti       9.73532     13.68176      2.09668        -0.623156      0.122591     -0.606909
Ti       9.67412     13.72094     14.80873         3.036660      0.754454     -1.199260
Ti       9.74377      2.03479      6.31712        -0.571747      0.684364     -1.419119
Ti       9.59578     13.58258      6.23015         0.222003     -0.168662      1.132152
Ti       9.75878      1.80732     10.61715        -0.717436      0.310252      0.622844
Ti       9.74815     13.43871     10.19038        -1.951735      1.513663      0.659945
Ti       9.59106      5.69105      1.99140        -0.292259      2.389134     -0.579565
Ti       9.77185      5.96900     14.53611        -0.167240     -2.325509     -0.734592
Ti       9.92340      5.80283      6.12435        -1.601618     -0.765670      0.959380
Ti       9.77960      5.78266     10.58338         0.559282      0.572629      0.171400
Ti       9.71443      9.84552      2.07401        -0.131599     -1.972591      2.842666
Ti       9.72716      9.61866     14.45532         0.963671      1.204242     -0.264916
Ti       9.75298      9.48823      6.02596        -1.384927      1.761134      1.823520
Ti       9.54533      9.60759     10.53599        -0.444946     -1.302074     -0.502514
O       1.79146      1.55225      0.08818         0.603645      0.552877      1.467676
O       2.16361      2.20478     12.83602        -0.465685     -0.633109      0.459155
O       1.77747     13.43036     16.41099         0.841554      0.252991      1.338768
O       1.76173     13.62918     12.43045         1.217777      0.493561      0.731369
O      13.68261      1.92634      0.12617        -0.711487      0.646033     -0.725525
O      13.74206      2.07290     12.51228        -0.535168     -0.968701      1.983467
O      13.66229     13.65948      0.23965         0.300058     -0.559057      0.648828
O      13.46930     13.35589     12.63433         0.356151      0.808014     -2.471495
O       2.13320      1.96597      4.32529        -0.769213     -0.162493     -0.765488
O       1.95244     13.23095      4.18937        -0.067292      1.497996      0.090325
O      13.50815      1.87364      4.18585         0.927336     -0.198782     -0.075286
O      13.61847     13.71478      4.61858        -0.165826      0.251443     -2.002000
O       2.12122      1.98147      8.24058        -1.035513      0.060458      1.766391
O       1.89668     13.82617      8.33452         0.242952     -0.056966      1.726262
O      13.63836      2.17546      8.30631        -0.249049     -0.617150      0.997001
O      13.60357     13.97900      8.34355         0.311243     -0.288296     -0.509122
O       1.76616      6.03711      0.09305         0.209075     -0.129432      1.454966
O       2.10417      5.89313     12.30632        -1.019549     -0.383513      4.729647
O      13.82234      6.28181      0.06692        -0.410855     -1.868433     -0.384079
O      13.77999      5.71996     12.48551        -0.157871      0.491898      2.822106
O       2.11797      6.06284      4.13838        -0.051208     -1.004294      1.733355
O      14.01113      5.65512      4.26471        -0.463238      1.714308     -0.517543
O       2.08341      5.97275      8.37652        -0.323816     -0.570142     -1.210089
O      13.58720      5.67912      8.22354         0.922687     -0.459548     -1.130459
O       1.98895      9.69358      0.00385        -0.766713      1.031571      0.969023
O       1.84657      9.41492     12.66241         0.135842      1.140485     -0.876928
O      13.30984      9.75698      0.19434         0.930665     -0.927604     -1.695912
O      13.52455      9.67426     12.50472         0.744510      0.796797      0.851764
O       1.83084     10.02531      4.13695        -0.112117     -0.916179     -0.883468
O      13.75395      9.73696      4.20672         0.316308     -0.393010     -1.105993
O       1.97047      9.68239      8.38962         0.173004      0.439600     -1.260781
O      13.79363      9.53845      8.13017        -0.038413      0.656233      2.355044
O       5.77119      1.70997      0.16018        -0.041512      0.162435      1.154313
O       6.01912      1.98515     12.68894        -0.832411     -0.709654      0.306303
O       5.52347     13.46044      0.19229         0.937777      0.457052     -1.031723
O       5.82029     13.59245     12.62848         0.086164      0.211882     -0.231530
O       5.90630      1.75091      4.47598         0.141407      0.732667      0.605218
O       5.95174     13.59264      4.21630        -1.161787      0.090333     -0.183823
O       5.79964      1.57751      8.45764         0.027993      1.712166      0.872761
O       5.76175     13.67499      8.37766         0.872918     -0.670707      0.644585
O       5.70015      6.00218      0.28628         0.958127     -0.359151     -3.013407
O       5.92176      5.47712     12.69075        -0.883045      0.643702     -1.027278
O       5.60006      5.69189      4.22203         1.621581      0.852638      1.409878
O       6.07301      5.71820      8.61910        -0.120338      0.734101      1.299579
O       6.15120      9.53640      0.18160        -0.530435      0.845645     -0.250506
O       5.62911      9.69668     12.68731         0.501871      0.300276      0.343417
O       5.40640      9.74663      4.30787         1.843159      0.055341     -0.314804
O       5.62952      9.40313      8.57588         0.057673      1.055136      0.874721
O       9.92477      2.12979     16.59883        -0.043989      0.524703      0.148478
O       9.58178      1.82517     12.64901         0.678562     -0.037290     -1.295351
O       9.92638     13.46585      0.16546        -0.893338      0.822734      1.277907
O       9.73646     13.72336     12.64870        -0.680091     -0.307102      1.071089
O       9.67711      2.03553      4.37349        -0.423814     -0.693151     -0.539571
O       9.96949     13.49941      4.49275         0.015196      0.921521     -2.165546
O      10.00133      2.17912      8.29891        -0.299536     -0.936838      0.163007
O       9.49787     13.53692      8.41221         0.624185     -0.986829     -0.102538
O       9.59904      5.55236      0.14426         0.558542      0.540115      0.658278
O       9.95669      6.03218     12.64751         0.387804      0.193709      0.191534
O       9.89490      5.72178      4.39626        -0.817785      0.977461     -1.639375
O       9.60647      5.82908      8.73223         0.078719     -0.799127     -1.474659
O       9.53058      9.89242      0.37535         0.272895     -0.214110     -2.176596
O       9.81686      9.42820     12.63157        -0.188361      0.316263      0.442953
O       9.70178      9.39466      4.30083         0.406735      0.245444     -1.108935
O       9.87514      9.58956      8.77187        -0.424456      0.605820     -1.637512
O       3.90883      1.59039      2.47624        -1.087449      0.757820     -1.266276
O       3.93035      1.55790     14.87150        -0.104667      0.907537     -0.733517
O       3.78798     13.87378      2.16816         2.098014     -0.251082     -0.189288
O       3.74461     13.75813     14.51458         1.785825     -0.586247      0.480967
O      15.57735      2.09453      2.20871         2.861934      0.614558      0.822930
O      15.46893      2.14069     14.65364         0.942907     -0.261201     -0.309423
O       0.04897     13.17084      2.43970        -2.003074      0.644230     -1.439079
O      15.51895     13.52803     14.58834        -0.125163      0.278589     -0.124623
O       3.92711      2.13595      6.51096         1.050006     -0.333927     -0.270744
O       3.82031     13.35045      6.34250         1.063246      0.451371     -0.129564
O       0.13256      1.94693      6.30833         0.114534     -1.161315      0.261501
O       0.09289     13.95318      6.40691        -0.912726      0.283794     -0.378641
O       3.86909      1.86398     10.41506         1.058549      0.002755      0.190532
O       3.96607     13.79289     10.31822        -0.677483      0.008399      0.649915
O       0.07481      1.91572     10.73742         0.851319      0.055807     -1.271716
O      15.58973     13.46310     10.67842        -0.119367      0.772079     -1.139073
O       3.88666      5.67434      2.06906        -2.120465      0.439161      0.430140
O       3.93166      5.62060     14.65186        -1.017998      0.192762     -0.085421
O       0.16318      5.68552      2.50201        -1.650753      0.237679     -1.081621
O       0.02680      5.64789     14.58983         0.931896      0.329469     -0.466135
O       3.99073      6.02432      6.21686        -0.856602     -0.737931      0.780191
O       0.06845      5.86610      6.49057        -0.364925     -0.037043     -0.295808
O       3.92031      5.88452     10.69550         1.270603     -0.242972     -0.837517
O       0.06645      5.97949     10.37848        -0.736766     -0.671914      0.014077
O       3.87902      9.61838      1.69430         0.850222      1.000361      1.435039
O       3.77737      9.59824     14.67337         1.224493      0.085361      0.328607
O       0.07341     10.12829      1.85002        -0.958157     -0.521805      0.314206
O       0.05925      9.79405     14.73201        -2.006197     -0.263652      0.407645
O       3.73684      9.91039      6.10377         1.779320     -0.445131      1.068557
O       0.01892      9.94269      6.33451        -0.182277     -1.121336     -0.606005
O       3.76963      9.82442     10.79443         1.230351     -1.143323     -0.642517
O      15.51005     10.00730     10.62195         2.098935      0.270759     -0.607076
O       7.80718      2.06874      2.03696         0.059530     -0.238040      0.251549
O       7.78557      1.96503     15.08866        -0.153137     -0.640442     -1.081190
O       7.77370     13.79206      2.35269         2.676174     -0.577617     -0.786599
O       7.81137     13.62043     14.61124        -1.400095      0.082516      0.810416
O       7.68064      1.47811      6.56584         2.075929      2.292864     -1.102806
O       7.80877     13.72197      6.14564         0.109431     -0.216837      0.469323
O       7.98882      1.95626     10.32983        -2.432108      0.240810     -0.290046
O       7.88255     13.54264     10.45386        -2.518795     -0.071901      0.418141
O       7.69362      5.70576      2.42702         0.751909      0.178739     -0.475637
O       7.92705      5.91008     14.20930        -0.681264     -0.078956      1.923626
O       7.84959      5.89504      6.31397        -0.922724      0.539499     -0.576135
O       7.87868      5.76923     10.89784        -1.585202      0.122651     -0.560099
O       7.69776      9.58075      2.29469         0.819279      0.580935      0.705581
O       7.78726      9.35135     14.64961        -0.026478      1.243051     -0.222296
O       7.81409      9.41663      6.27945         0.103018      0.202486      0.068938
O       7.66507      9.40229     10.60982         0.131093      0.664760     -0.385811
O      11.68693      2.00185      2.20974         0.829698     -0.029837     -0.240685
O      11.78784      2.19787     14.56956        -0.920537     -0.661875      0.124689
O      11.85668     13.84974      2.43073         0.011958      0.005952     -0.846957
O      11.67740     13.65850     14.65164        -1.864413     -0.102661      0.864117
O      11.70894      2.28350      6.09861        -0.446700     -0.513970      1.203482
O      11.57331     13.55036      6.62206         0.683145      0.007289     -0.105652
O      11.69041      1.97997     10.65863         1.006148     -1.063838     -0.609167
O      11.56678     13.48208     10.49309         1.488521      0.390552     -0.147234
O      11.99980      6.17750      2.48791        -0.444497     -0.895654     -0.929723
O      11.81768      6.01158     14.60309        -0.610660     -0.065168      0.317799
O      11.86055      5.60638      5.98023         0.112540     -0.490126      1.256426
O      11.82064      5.84428     10.44032         0.758941     -0.438189      0.464838
O      11.69360      9.41000      2.26266        -0.356052      0.539654      0.105605
O      11.69515      9.74314     14.58648        -0.498361     -0.520840      0.633248
O      11.81905      9.70696      6.37681        -2.173532      0.360152     -0.282752
O      11.80298     10.03368     10.48630        -0.614201     -0.244188     -0.286363
O       2.01131      3.77016      1.99106         0.261013     -0.253115      0.446298
O       1.89543      3.81915     15.30016         0.918869     -0.639201     -1.320544
O       1.78215     15.37342      2.45895        -0.959840      3.217158     -0.710585
O       1.78122     15.59057     14.76236        -0.111651     -0.317320     -1.453096
O      13.66827      4.03050      2.06183        -0.217595      0.236980     -0.085826
O      13.56958      4.00453     14.67098        -0.071906     -1.007192      0.133946
O      14.16929      0.14022      1.91418        -1.770896     -3.034191      1.230193
O      13.57658     15.49936     14.55194         0.153775      2.792070      0.110990
O       1.98494      3.98823      6.10931         0.070877      0.376156      0.871966
O       2.36852      0.02445      6.21627        -0.984023      0.325340      0.355101
O      14.12241      3.81419      5.91594        -1.228896      0.570918      1.685938
O      13.62781      0.08574      6.24911        -0.339493      0.552953      0.876829
O       2.21659      3.84725     10.43156        -0.953074     -0.288490     -0.385578
O       1.99502     15.59144     10.54391        -0.407869      0.992713     -0.033436
O      13.68634      3.73962     10.68229         0.296564      0.837562     -1.333626
O      13.81648     15.48988     10.49691        -0.846017      1.653416      0.473161
O       1.79181      7.92261      1.99826         0.124474     -0.954512      1.066814
O       1.98340      7.58714     14.45825        -0.422181      1.070670      0.677422
O      14.22071      7.81556      1.98903        -0.573433      0.798969      1.495693
O      13.88187      7.78010     14.54872        -0.585952      1.124355     -0.085623
O       1.78979      7.76366      6.04897         0.628602      0.776382      0.882427
O      13.39808      7.73162      6.20394         1.712738     -1.940701     -0.431972
O       1.81286      8.00029     10.38744         0.465425     -1.215125      0.006025
O      13.56599      7.91444     10.31511         0.756530     -0.911062      0.643891
O       2.40914     11.71554      2.08916        -0.539233     -0.343478     -1.207891
O       1.79103     11.63894     14.22215         1.083227     -0.146881      1.352632
O      13.36036     11.56382      1.95116         0.400588      1.680222      1.047503
O      13.47588     11.71060     14.57749         0.989806     -2.138772      1.324450
O       1.86271     11.85429      6.40284        -0.740261     -2.034938      0.288967
O      13.59375     11.68794      6.36614         0.280240      0.403479      0.617309
O       2.23549     11.76765     10.48718        -0.983887      0.034149      0.009661
O      13.66953     11.82871     10.05262        -0.109731     -1.614306      0.233684
O       5.57341      3.77256      2.28282         0.622084     -0.106404     -0.132636
O       5.94719      3.86432     14.80208        -0.162776     -0.298163      0.481020
O       5.88576      0.03529      2.45021         0.620619     -1.195337     -0.847812
O       5.98978     15.45173     14.82738         0.054090      0.038397     -0.319913
O       5.90902      3.88275      6.38306         0.230069      0.492567      0.264090
O       5.73460     15.39006      6.42751        -0.861834      1.558297     -0.176543
O       5.82569      3.81490     10.43021        -0.067113     -0.788375      0.321108
O       5.79144     15.57914     10.58948         0.863301      1.169007      0.561755
O       5.57441      7.81713      2.43956         1.058993     -0.551986      0.153844
O       5.83152      7.71636     14.56214        -0.346293     -0.788590      0.017132
O       5.78684      7.90937      6.39258        -0.533133     -1.858870     -0.440254
O       5.64658      7.71537     10.93051         0.259891     -0.466952     -0.884208
O       5.83982     11.73060      2.38899        -0.186496     -0.787708     -0.792098
O       5.66858     11.53668     14.81041         0.848584      1.432732      0.082931
O       6.12161     11.73581      6.38580        -0.250565     -2.201592      0.047376
O       5.49900     11.68569     10.33948         1.567522     -0.316859      0.172066
O       9.92048      3.96234      2.45077        -0.138500      0.055937     -0.359354
O       9.76655      3.99562     14.38306         0.013692     -0.799062      0.410382
O       9.85126      0.20932      2.17588        -0.641761     -3.040005      0.195625
O       9.71852      0.11526     14.69280        -0.201501     -1.880422      0.473953
O       9.54520      3.90892      6.24034         0.064124     -0.756796      1.205044
O       9.89559     15.58371      6.56232        -0.242553      0.611740     -0.559027
O       9.81565      3.91123     10.60376         0.042140     -1.333342      0.318759
O       9.61400     15.47557     10.39145         1.697157      1.102821      0.146010
O       9.75072      7.63053      2.38198        -0.698317     -0.298706     -0.473025
O       9.83667      7.79499     14.93418         0.047508      0.279588      0.213155
O      10.05291      7.64619      6.66682        -0.547893      0.210974     -0.797962
O       9.97344      7.69675     10.46552         0.010675      1.008397      0.921019
O       9.94523     11.76047      2.43985        -0.311426     -0.487245     -0.588685
O       9.31925     11.53580     14.65865         1.463869     -0.123825      0.609994
O       9.70866     11.42198      6.14679         0.463801      0.431565      0.630205
O       9.41968     11.51165     10.89772         1.101947      0.836669     -1.258372
