  # total energy = -7881.37204375 
CRSYTAL
PRIMVEC
    15.464    0.0000000000000000    0.0000000000000000
     0.0000000000000000   15.464    0.0000000000000000
     0.0000000000000000    0.0000000000000000   17.350608
PRESSURE
-0.564608 -0.948203 1.81043 0.110633 -0.030661 -0.001387
PRIMCOORD
320 1
Pb       3.84040      3.85259      4.35884        -0.063542     -0.657069     -0.878113
Pb       3.86794      3.97455     17.27037        -0.445338     -1.053185      0.689256
Pb       3.73665     15.36614      4.30899         0.745612      0.026356     -0.480166
Pb       3.82143     15.38644     17.17277         0.266808      0.490352      0.117802
Pb       0.15877      3.85679      4.36503        -0.882240     -0.462597     -0.139278
Pb      15.37758      3.73559      0.03220         0.382947      0.089159     -0.234822
Pb       0.12541     15.46384      4.29127        -0.669904     -0.140432     -0.723044
Pb      15.42456     15.33536     17.22803         0.080691      0.320687      0.604464
Pb       3.73356      3.89423      8.53936         0.058446     -0.017959      0.391421
Pb       3.77681     15.36608      8.82691         0.216001      0.394508     -0.831152
Pb      15.40353      3.77048      8.51789         0.047852      0.620792     -0.202127
Pb       0.04542      0.03203      8.62351        -0.033513     -0.064911     -0.033412
Pb       3.67636      3.87528     12.94307        -0.041989     -0.263070      0.219763
Pb       3.76084     15.31504     12.97485         0.016826      0.520506      0.036647
Pb      15.34143      3.84131     12.95655         0.620688     -0.054847      0.215191
Pb      15.41808      0.04128     12.97385         0.238716      0.341913     -0.301594
Pb       3.80259      7.68578      4.23598         0.043690      0.304925     -0.015852
Pb       3.68462      7.58794      0.18875         0.564480      0.199138     -0.794434
Pb      15.43263      7.73333      4.24629         0.064585     -0.073289     -0.229049
Pb      15.45418      7.72487      0.15131        -0.156241     -0.332657     -0.896715
Pb       3.87100      7.74518      8.63377         0.028524     -0.643816     -0.212375
Pb       0.13045      7.77467      8.50180        -1.043299     -0.323069      0.702150
Pb       3.87498      7.67371     13.04299        -0.909857      0.294694     -0.379554
Pb      15.44107      7.81017     13.01464         0.020789     -0.040188     -0.164516
Pb       3.88546     11.59748      4.36652        -0.132970      0.016687     -0.729710
Pb       3.83839     11.65722     17.30804        -0.202268     -0.251287     -0.636509
Pb       0.06736     11.55348      4.32113        -0.056395      0.303128     -0.435243
Pb       0.10473     11.61307     17.31548        -0.376483      0.088918     -0.415321
Pb       3.93113     11.60520      8.62313         0.025445     -0.300067     -0.319949
Pb      15.42810     11.58171      8.58760        -0.505424     -0.382471     -0.088590
Pb       3.77050     11.61898     13.01666         0.255613     -0.151080     -0.170356
Pb      15.40258     11.60697     12.86341         0.067268     -0.312492      0.816730
Pb       7.59922      3.82368      4.33121         0.203279     -0.749917     -0.536669
Pb       7.68091      3.95062     17.25455         0.302048     -0.251588      0.157596
Pb       7.82721     15.33945      4.34022        -0.866486      0.699684     -0.443933
Pb       7.62276     15.33879     17.21988         0.200608      0.791934      0.070706
Pb       7.59091      3.87313      8.66147         0.479287      0.129869      0.220764
Pb       7.67127      0.09537      8.67390         0.334638     -0.485629      0.212728
Pb       7.58738      3.84768     12.91624         0.826027      0.485611     -0.110996
Pb       7.75192      0.09275     12.95006        -0.010856     -0.313820      0.054216
Pb       7.71486      7.71605      4.24720         0.440933      0.205621      0.474065
Pb       7.77670      7.75387      0.02682        -0.217534     -0.208113     -0.570796
Pb       7.65337      7.67034      8.62444         0.268367     -0.002520     -0.481894
Pb       7.65490      7.78449     13.03731         0.318691     -0.426404     -0.388259
Pb       7.80822     11.56938      4.34642        -0.325560      0.058198     -0.193992
Pb       7.75458     11.55415     17.24505        -0.187315     -0.264141     -0.488326
Pb       7.73219     11.56695      8.65876         0.210185     -0.308122      0.061560
Pb       7.67114     11.57246     12.92740        -0.410879     -0.167767      0.224728
Pb      11.42672      3.88936      4.39413         0.311740      0.115232     -0.317588
Pb      11.53960      3.85089      0.05647        -0.012100     -0.176373     -0.692151
Pb      11.65795     15.46040      4.23668        -0.112156     -0.384309      0.179565
Pb      11.52297     15.44086     17.33236         0.107141     -0.096410     -0.487527
Pb      11.80385      3.89077      8.63378        -0.908902      0.091926      0.149176
Pb      11.62364     15.43875      8.71803        -0.055587     -0.359843     -0.318638
Pb      11.57327      3.81329     13.00258        -0.227156      0.125178     -0.258836
Pb      11.58195     15.45298     12.96502         0.511602     -0.183340     -0.633259
Pb      11.70137      7.69498      4.29424        -0.440542     -0.177788     -0.372644
Pb      11.71033      7.72805     17.27107        -0.841373     -0.306499      0.408595
Pb      11.57111      7.76903      8.65806         0.222274     -0.452585     -0.856131
Pb      11.58103      7.71767     13.09433         0.246239     -0.310361     -0.275785
Pb      11.66221     11.42304      4.36501         0.109135      0.484306     -0.106794
Pb      11.52903     11.53108     17.22430         0.204401      0.806703     -0.125341
Pb      11.61075     11.55352      8.54796         0.195824      0.484004      0.378323
Pb      11.62001     11.55003     12.87786         0.227826      0.502216      0.034694
Ti       1.88679      1.88103      2.21455         0.030293      0.908843      0.591279
Ti       1.95799      1.90882     15.33535        -0.320765      0.544277     -0.492788
Ti       1.92525     13.51178      2.22854        -0.381303     -0.139274      1.536196
Ti       1.87631     13.55361     15.29476         0.232473     -1.101633     -0.548069
Ti      13.43604      1.93729      2.41748         1.732083     -0.099632      1.099507
Ti      13.58869      1.86830     15.39419        -0.778878      0.684545     -0.502941
Ti      13.52529     13.47969      2.24467         0.248696      0.311855      0.643618
Ti      13.47131     13.50646     15.19068         0.656221      0.088162      0.592245
Ti       1.93789      1.89878      6.57962        -0.038342     -0.312372      1.361437
Ti       1.94874     13.45429      6.72416         0.088036      0.552665     -1.070232
Ti      13.49714      1.84698      6.57185        -0.338928      1.347491      1.129679
Ti      13.60029     13.53582      6.68384        -1.648471     -0.275987      1.546617
Ti       2.04298      1.92128     10.90505        -1.566295     -0.248471      1.553594
Ti       1.94864     13.51069     10.88062        -0.159793      0.786206      0.703940
Ti      13.55812      2.01719     10.93373         0.197294     -0.957059      0.527702
Ti      13.64691     13.54089     10.97340        -2.054101      0.480808     -0.251320
Ti       1.91369      5.70747      2.30904        -0.735032      0.065435     -0.085070
Ti       1.84595      5.75384     15.40889        -0.583618     -0.018964     -0.498325
Ti      13.54602      5.64637      2.23670        -0.181568      0.976431      1.398661
Ti      13.53131      5.73951     15.36503         0.078395     -0.073597      0.725597
Ti       1.96418      5.77395      6.52361        -0.710991      0.197576      1.046327
Ti      13.58470      5.79743      6.54886        -0.860281      0.061755      1.449910
Ti       1.83156      5.82049     10.99397         0.242854      0.138285     -0.864479
Ti      13.51102      5.88226     10.98279        -0.235716     -0.190211      0.605034
Ti       1.92620      9.62930      2.23388         0.074701      0.816357      2.488102
Ti       1.83966      9.64829     15.35202        -0.176848      0.210623      0.146602
Ti      13.54593      9.64993      2.18245        -0.071929      0.004648      1.089260
Ti      13.45852      9.65315     15.31944         1.757708      0.458490     -1.723040
Ti       1.94113      9.62503      6.56587        -0.892082      0.409656      0.120699
Ti      13.48658      9.60776      6.64289         0.276804      0.251571      0.607634
Ti       1.93127      9.68047     10.97856         0.217236     -0.517951      1.360685
Ti      13.52693      9.63913     10.93714         0.391643      0.338921     -0.355357
Ti       5.73738      1.83588      2.26537        -0.032343      0.009335      2.606023
Ti       5.81036      2.01821     15.27487        -0.212774     -1.324991     -0.081131
Ti       5.81980     13.45352      2.27082        -0.372672      0.617804      3.284903
Ti       5.82456     13.48387     15.24922        -1.527672      0.017618      0.044703
Ti       5.75120      1.81057      6.71086        -0.316794     -0.100833     -0.991068
Ti       5.86738     13.46427      6.67732        -0.783784      0.522238     -0.802503
Ti       5.80465      1.92916     11.03256        -0.800143     -0.055049     -0.311478
Ti       5.80149     13.53625     11.00218        -0.108205     -0.806549      2.968556
Ti       5.76677      5.75346      2.34794        -0.375372     -0.185250      0.335243
Ti       5.70551      5.83030     15.25350         0.905671      0.124325      2.072971
Ti       5.76618      5.63445      6.55196         0.016882      1.620537      0.915801
Ti       5.69207      5.79585     11.01466         0.725989     -0.273788      0.325512
Ti       5.82618      9.59928      2.28326        -0.415148      0.748133      0.711457
Ti       5.61280      9.58589     15.35336         0.749460      0.197134      0.975806
Ti       5.78775      9.60849      6.56121         0.125908     -0.586655      2.199812
Ti       5.74667      9.55440     11.01819        -0.656857      1.489754      0.798163
Ti       9.62481      1.90570      2.24930        -1.084304     -0.217892      0.739899
Ti       9.65200      1.96036     15.31577         0.524191      0.342196      0.201947
Ti       9.71015     13.47671      2.38859         0.242181      0.304372     -0.198492
Ti       9.64266     13.52636     15.16297         0.404113     -0.521088      0.216072
Ti       9.61690      1.94499      6.76478         0.867526     -0.321128      0.949209
Ti       9.61476     13.52130      6.66441         0.973381      0.235862      1.758476
Ti       9.68159      1.85953     10.96947         0.345058      1.273690      2.009033
Ti       9.56495     13.38943     10.99661         2.306477      0.861720      0.916742
Ti       9.62623      5.75937      2.39382         0.431149      0.411011      1.231713
Ti       9.67542      5.82491     15.36100        -0.153583      0.382826      1.906010
Ti       9.66148      5.71064      6.68129         0.775662      1.148087     -0.589167
Ti       9.71974      5.79817     10.91684        -1.010110     -0.942417      0.833293
Ti       9.71116      9.65423      2.24314        -0.157279     -0.601538      1.679731
Ti       9.62976      9.67827     15.24293        -0.079193     -1.019164      0.807424
Ti       9.58482      9.65762      6.64437         0.704564     -0.749675      1.329167
Ti       9.66357      9.55302     10.99429        -0.146871      0.677693      0.172409
O       1.94114      1.93160      0.50167        -0.183872     -0.135079     -1.647319
O       1.88342      1.99748     13.57063         0.184908     -0.145374      0.302557
O       1.91243     13.46562      0.50708         0.200069      0.146298     -1.151348
O       1.88293     13.51659     13.51805         0.186930      0.110212     -0.056249
O      13.47436      2.09379      0.70685        -0.347681     -0.094594     -1.631759
O      13.54871      1.78641     13.65474         0.046006      0.253793     -0.832755
O      13.54302     13.48334      0.50449        -0.344003     -0.134338     -0.564639
O      13.67063     13.70110     13.45508        -0.176152     -0.101697     -0.305291
O       1.89822      1.93776      4.86812         0.266496     -0.245270     -1.526449
O       1.93410     13.44111      4.89413        -0.112013      0.235350      0.904447
O      13.49510      1.91546      4.84575        -0.159372     -0.399382     -0.848792
O      13.57135     13.59480      4.99482        -0.013712      0.117420     -1.606631
O       2.06418      1.81138      9.16677        -0.357080      0.283285     -0.881353
O       1.89406     13.74218      9.09097         0.456805     -0.932255      0.209385
O      13.53493      2.09582      9.16938         0.372319     -0.253844      0.208002
O      13.43427     13.44307      9.22056         0.601807      0.250655      0.016304
O       1.84870      5.66862      0.51115         0.578416      0.541360      0.146178
O       1.82054      5.70951     13.63504         0.418865      0.209846      0.001735
O      13.59562      5.52506      0.50419        -0.188507      0.121446     -0.886355
O      13.40737      5.89364     13.65436         0.279375      0.027441     -1.157652
O       1.97136      5.72283      4.77570        -0.253141      0.393154     -0.545723
O      13.61826      5.83442      4.82740        -0.304489      0.117532     -1.024241
O       2.00447      5.85511      9.18238        -0.318604      0.074549      0.880804
O      13.48398      5.82616      9.26715         0.082391     -0.220147     -1.085492
O       1.87733      9.69979      0.52167         0.072024     -0.086039     -1.263220
O       1.81780      9.59332     13.61121         0.213278      0.062335     -0.562262
O      13.68187      9.84961      0.45590        -0.617071     -0.315079     -0.310448
O      13.50012      9.64353     13.46480        -0.043098     -0.486918      1.585557
O       1.75360      9.68196      4.84060         0.107209     -0.022784     -0.719463
O      13.37730      9.56789      4.88353         0.436583      0.002420     -0.516774
O       2.05400      9.57332      9.25365        -0.201927      0.339603     -1.051493
O      13.52223      9.73878      9.15944         0.046085     -0.263779      0.109902
O       5.82304      1.67400      0.59875         0.059160      0.094863     -2.079167
O       5.82966      2.03201     13.50670         0.225945     -0.009361      0.086529
O       5.87156     13.63163      0.58685        -0.228767     -0.278151     -2.197335
O       5.57925     13.57093     13.52478         0.749575     -0.171546     -0.162321
O       5.91665      1.82157      4.92556        -0.542174      0.378445      1.101243
O       5.90255     13.44026      4.89953        -0.437724     -0.034819      0.643801
O       5.78866      1.97319      9.25388        -0.038500      0.010093      0.408234
O       5.77659     13.47458      9.34129        -0.124234     -0.128738     -3.000882
O       5.58652      5.92284      0.63826         0.282204     -0.415760     -0.994246
O       5.79213      5.82384     13.53797        -0.315511      0.026895     -1.138135
O       5.65170      5.49598      4.83210         0.407185      0.620090     -0.971464
O       5.58203      5.79270      9.27641        -0.066311      0.066594     -1.221902
O       5.78458      9.56231      0.54032         0.026309      0.339767     -0.507377
O       5.69773      9.55330     13.62941         0.251394     -0.226678     -0.935133
O       5.98389      9.67434      4.90483        -0.167768      0.257328     -2.086847
O       5.73434      9.57150      9.28379        -0.188158      0.032364     -1.150836
O       9.68159      1.89281      0.49362         0.178308     -0.016020     -0.013454
O       9.69506      2.07285     13.56046        -0.215147     -0.265084      0.036738
O       9.84995     13.44524      0.64006        -0.534665     -0.177632     -0.683853
O       9.54501     13.30534     13.45539         0.226956      0.768614      0.046632
O       9.58293      1.88663      5.04168        -0.021939      0.342083     -0.766931
O       9.54848     13.45462      4.95415         0.326331      0.539961     -1.458588
O       9.45631      1.84873      9.30006         0.176895      0.041808     -1.596094
O       9.58369     13.36844      9.26903         0.036467      0.048226     -0.673755
O       9.55703      5.80464      0.70533         0.023442     -0.066300     -2.095661
O       9.87148      5.95516     13.70365        -0.611762     -0.134901     -2.469256
O       9.73558      5.71753      4.86290        -0.267512     -0.321777      0.710764
O       9.54096      5.90134      9.21053         0.492610     -0.040206     -1.128404
O       9.62447      9.67489      0.49904         0.230092      0.436561      0.183263
O       9.73588      9.43411     13.48665        -0.523545      0.534580      0.112588
O       9.65873      9.64508      4.94316         0.029638      0.158403     -1.542131
O       9.51356      9.75051      9.22865         0.397213     -0.573161      0.881264
O       3.73756      2.15525      2.58883         1.460961     -0.695781      0.554618
O       3.87280      1.87428     15.59587         0.230710      0.100385      0.405454
O       3.79784     13.43933      2.71241         0.872913      0.149613      0.013705
O       3.78144     13.40982     15.70251         1.384944      0.858736      0.319458
O      15.42519      1.85485      2.69146         0.080893     -0.173969      0.367299
O       0.02120      1.76294     15.67796         0.040022      0.577474      0.532665
O       0.03151     13.64276      2.67864        -0.336205     -0.166356      0.057438
O       0.03212     13.53623     15.75141        -1.163429     -0.091962     -0.173324
O       3.80623      2.02151      7.05445         0.650043     -0.557065     -0.338012
O       3.83999     13.52314      7.02326         0.186168     -0.471641      0.378590
O       0.01012      1.99625      6.87749        -0.450131     -0.231322      0.677373
O      15.40782     13.54309      7.11888         1.389720      0.051201      0.112883
O       3.84663      1.85549     11.41456         0.888796      0.678365     -0.069350
O       3.84557     13.52170     11.35119        -0.205607     -0.241805     -0.232692
O       0.06171      1.85590     11.41857        -0.747741      0.369816     -0.570157
O       0.07666     13.66526     11.17824        -0.539441     -0.360181      0.354533
O       3.81277      5.77884      2.75109        -0.078856     -0.080785     -0.051116
O       3.81492      5.70637     15.78708         0.341243      0.833360     -0.462743
O       0.04987      6.02469      2.57918        -0.805255     -0.622352      0.294979
O      15.43140      5.83164     15.63067         0.150471      0.116554      0.764887
O       3.80215      5.96043      6.91441         0.319559     -0.965434      0.204033
O      15.42078      5.74872      6.95079         0.801324      0.226744      0.286376
O       3.72385      5.73410     11.52744         0.389196      0.212262     -0.275653
O      15.35987      5.81720     11.42329         1.528740      0.091704      0.071259
O       3.79433      9.69111      2.83147         0.268172      0.134782     -0.585696
O       3.79024      9.67623     15.65440         0.277394     -0.143170      0.451390
O      15.39626      9.57574      2.72207         0.062868      0.004329     -0.339632
O      15.38796      9.78073     15.63050         0.274215     -0.522128      0.494784
O       3.80177      9.81069      6.69822         1.076686     -0.574428      0.864118
O      15.41247      9.70714      7.02739         0.432730     -0.268222      0.120353
O       3.82490      9.70759     11.52158        -0.220567     -0.055510     -0.292265
O       0.03300      9.67210     11.42789        -0.119245     -0.022213     -0.431667
O       7.69634      1.78487      2.74833         0.743412      0.397842     -0.322135
O       7.77761      1.92332     15.74615        -0.573846      0.259088     -0.136790
O       7.68562     13.50937      2.72613         0.877959      0.088533     -0.189467
O       7.67236     13.40385     15.59870         0.802267      0.360236      0.294120
O       7.63176      1.98633      7.20079         0.300198     -0.218214     -0.308828
O       7.69278     13.52646      7.04077         0.408333      0.406040      0.402171
O       7.70233      1.93472     11.48233         0.036963     -0.060537     -0.326795
O       7.78995     13.58899     11.39357        -1.749234     -0.281094      0.207078
O       7.62815      5.99108      2.69702         0.657995     -0.834122      0.129255
O       7.61962      5.72628     15.72862         0.478427      0.430087     -0.055558
O       7.71668      5.68348      6.90792        -0.823233      0.208674      0.273085
O       7.63583      5.89696     11.22663         0.172979     -0.221198      0.723153
O       7.72564      9.47798      2.70662         0.712782      0.839447     -0.516212
O       7.80552      9.65237     15.71939        -0.808386      0.063027     -0.108162
O       7.73957      9.55961      7.10990        -1.006287      0.481670     -0.098297
O       7.59913      9.59194     11.47290         1.183892     -0.233287     -0.086360
O      11.53831      2.03032      2.78548        -0.046716     -0.161383     -0.190593
O      11.58729      2.00387     15.72741        -0.379101     -0.267591      0.483059
O      11.57566     13.54570      2.72234         0.881768     -0.531403      0.377253
O      11.60092     13.42818     15.50122        -0.702497      0.632564      0.376851
O      11.55318      1.88116      7.14764         0.362353      0.410967     -0.368238
O      11.58493     13.50971      7.17477        -0.325318      0.248288     -0.626446
O      11.64171      2.08709     11.37757        -0.329702     -0.832151     -0.251943
O      11.65697     13.61207     11.45218        -0.726101     -0.979901     -0.050812
O      11.55002      5.59127      2.65704         0.785039     -0.002013      0.106593
O      11.62127      5.93315     15.70723        -0.180244     -0.758800      0.947511
O      11.64423      5.79586      7.03848        -0.756128     -0.039004      0.025023
O      11.60941      5.90804     11.42294        -0.429215     -0.381326     -0.249872
O      11.62533      9.70934      2.72744        -0.045731     -0.028152     -0.614576
O      11.59209      9.62169     15.70318        -0.097417      0.268255      0.087095
O      11.58519      9.66843      7.05943        -0.545430      0.111964      0.069054
O      11.64254      9.73514     11.35380        -1.454941     -0.567383     -0.507298
O       1.77177      3.86734      2.69263         0.123967      0.350578     -0.031993
O       1.88867      3.84907     15.77422         0.042385     -0.475784     -0.111032
O       2.01683      0.06645      2.59372         0.055316     -1.674772      0.684159
O       1.90043     15.39357     15.65981         0.533636      0.942281      0.266007
O      13.77063      3.88487      2.85604        -0.813120     -0.424511     -0.446211
O      13.61762      3.82235     15.64423        -0.247429      0.169755      0.343645
O      13.46892     15.39038      2.63636        -0.358458      1.086758      0.349849
O      13.50220      0.03495     15.84225        -0.449430     -1.252917      0.102146
O       1.86331      3.89322      6.87130         0.556691      0.086376      0.534758
O       1.93655     15.45751      6.99943        -0.199498     -0.070501     -0.073879
O      13.44056      3.85721      7.06777         0.783848     -0.147188     -0.548908
O      13.54465      0.07833      7.14417        -0.024154     -1.054373     -0.189348
O       1.86465      3.83890     11.22548         0.217933      0.139216      0.345513
O       2.02173     15.44520     11.35569        -0.117607     -0.276081     -0.206849
O      13.58591      3.90121     11.42493        -0.407541     -0.336943     -0.114269
O      13.45296      0.03970     11.31430         0.484688      0.446416     -0.084543
O       1.91796      7.75298      2.66338         0.561133     -0.037894     -0.145452
O       1.90484      7.76070     15.89508        -0.122370     -0.507236     -0.203569
O      13.35720      7.60583      2.41652         0.344721      1.282233      0.454186
O      13.55441      7.75149     15.93887         0.405160      0.296815     -0.687370
O       1.79369      7.73541      6.97295         0.801096     -0.058416     -0.463324
O      13.47156      7.71742      7.04554         0.342179     -0.024746     -0.024932
O       1.96832      7.73601     11.35832        -0.336161     -0.076010      0.264539
O      13.59559      7.79169     11.29476        -0.296171     -0.308525      0.268304
O       1.82752     11.62433      2.63673        -0.134818     -0.868970      0.110556
O       1.94220     11.61834     15.75872        -0.127018     -0.724851      0.129604
O      13.59934     11.60420      2.69357        -0.242212     -0.505688      0.135775
O      13.54280     11.66846     15.34560        -0.281251     -0.929029      0.921917
O       1.91264     11.54146      7.02691        -0.322580      0.851145      0.409525
O      13.55859     11.56819      6.97619        -0.192040      0.381062      0.208078
O       1.84481     11.64576     11.45074         0.555387     -0.174742     -0.921246
O      13.55433     11.57884     11.29556         0.366693      0.712209      0.442122
O       5.81438      3.83963      2.58216         0.367967     -0.023002      0.401230
O       5.77253      3.82379     15.82129        -0.025250      0.598658     -0.426580
O       5.71343     15.43949      2.86038        -0.408075     -0.553335     -0.465403
O       5.84089      0.05746     15.70023        -0.143868     -1.181718     -0.184195
O       5.67675      3.83576      6.99833         0.115803     -0.094256      0.383152
O       5.73348     15.38788      7.18296         0.108441      0.582305     -0.369401
O       5.77827      3.90857     11.44211        -0.289685     -0.935301     -0.274795
O       5.76741     15.42867     11.34839         0.276218      0.821857      0.187571
O       5.67406      7.76986      2.69466        -0.226254     -0.660330      0.666502
O       5.82163      7.66454     15.77793        -0.532249      0.488420     -0.429999
O       5.72727      7.69514      6.88645         0.266235      0.125283      0.374119
O       5.59643      7.68726     11.37143         0.091882      0.266810      0.396884
O       5.85735     11.54385      2.72590        -0.265775      0.089620     -0.352362
O       5.73775     11.57907     15.63499         0.269273     -0.186776      0.537486
O       5.83102     11.58590      7.17914        -0.313000     -0.361271     -0.375197
O       5.76627     11.57233     11.42375         0.233088      0.186564      0.006654
O       9.57243      3.82844      2.71056        -0.468777     -0.432597      0.156343
O       9.63391      3.95110     15.73659         0.188667     -0.771656      0.331745
O       9.76588     15.42139      2.72377        -0.436395      0.564794      0.031108
O       9.65009     15.40400     15.48445         0.066488      0.157354      0.425862
O       9.67101      3.87683      7.25982        -0.143002     -0.360009     -0.595646
O       9.70368      0.03938      7.26017        -0.967677     -0.623268     -0.635027
O       9.66312      3.85733     11.30877        -0.204092      0.637877      0.301182
O       9.67914     15.44930     11.46980        -0.138874      0.235571     -0.252675
O       9.76038      7.75488      2.82981        -0.136546      0.058737     -0.544327
O       9.70304      7.73825     15.87067        -0.502593      0.242464     -0.327227
O       9.65526      7.71309      6.97653        -0.057398     -0.498366      0.591878
O       9.60741      7.68134     11.33885         0.247025      1.191421      0.119500
O       9.74673     11.58922      2.89330        -0.729790     -0.874492     -0.855115
O       9.68537     11.57821     15.68437        -0.103870     -0.116819      0.129983
O       9.50618     11.62365      6.95235         0.402472     -0.353128      0.446226
O       9.56902     11.53467     11.55804         0.187970     -0.754290     -0.995631
