  # total energy = -7841.49221696 
CRSYTAL
PRIMVEC
    15.6080000000000005    0.0000000000000000    0.0000000000000000
     0.0000000000000000   15.6080000000000005    0.0000000000000000
     0.0000000000000000    0.0000000000000000   16.6239999999999988
PRESSURE
3.09873 3.80533 0.131198 -0.091972 0.045403 0.296412
PRIMCOORD
320 1
Pb       4.25698      4.05131      4.28178        -0.834238     -1.100519     -0.535970
Pb       4.13118      3.65709      0.01160        -1.298617      1.206381      0.345063
Pb       4.27846      0.07729      4.19036        -0.848684      0.294526     -0.096367
Pb       3.95240      0.19558      0.41502        -0.770313     -0.249798     -0.069937
Pb       0.40556      3.91494      4.20367        -0.840765      0.989279      0.637403
Pb       0.06395      3.87869      0.21828         0.509761      0.717923     -0.148443
Pb      15.45319      0.08238      4.16880        -0.463707     -1.078295      0.087319
Pb       0.04098      0.09453      0.05577         0.434091     -1.068301     -0.059804
Pb       4.02790      3.72011      8.18870        -0.764608      0.280532     -0.083140
Pb       3.94485      0.00348      8.80658         0.469908      0.646057     -1.441551
Pb      15.54119      3.72980      8.30563        -0.038692      0.103564     -0.737407
Pb      15.19626     15.50059      8.06306         1.159360      0.016301      0.522293
Pb       3.64061      3.83256     12.26490         2.100014      0.334370      0.340584
Pb       3.80093      0.42828     12.38818         0.031001     -1.057865      0.430520
Pb       0.27063      3.90848     12.45572        -0.905453     -0.925245      0.316442
Pb      15.19115     15.31524     11.90663         0.521358      1.251377      1.399649
Pb       3.95359      8.26418      4.16854        -0.709484     -1.527325      0.189479
Pb       4.01136      7.97489      0.04147        -0.499041     -0.306769     -0.436199
Pb       0.18998      7.65201      4.14998        -0.190907      0.648290      0.774894
Pb       0.12555      8.24738     16.49654        -0.467633     -2.271350      0.433041
Pb       4.20377      7.91819      8.78548        -0.937488     -0.666161     -0.669412
Pb       0.01930      7.80499      8.61888         0.992657     -0.079387     -1.344198
Pb       3.79732      7.46911     12.82945         0.064629      0.989772     -0.454282
Pb      15.59413      7.54424     12.54299         0.721379      0.712172      1.450179
Pb       3.65353     12.06942      4.72370         0.323813     -0.992908     -1.117052
Pb       3.40151     11.90749      0.37323         0.996827      0.149220     -0.818132
Pb       0.25127     11.61718      4.15474        -1.950632      0.274941      0.992750
Pb      15.38612     11.62952     16.34389         1.238591      1.683585      1.286780
Pb       3.73885     11.51235      8.36961         0.037242      0.373439     -0.296825
Pb      15.41776     11.58991      8.19904         0.167071      0.212414     -0.290718
Pb       4.48048     11.86606     12.51334        -2.712060     -0.243341      1.127404
Pb      15.21688     11.81494     12.50653         1.067644      0.055377     -1.150205
Pb       8.19397      3.98074      3.58907        -2.648513     -0.749144      2.764460
Pb       7.82018      3.99447     16.41748         0.322506     -0.977767      1.074393
Pb       8.43240     15.58356      4.13205        -2.437000     -0.234450     -0.148082
Pb       7.60479     15.24874     16.56027         0.775112      1.341908     -0.241335
Pb       7.46061      4.05332      7.92282         1.517292     -0.595838      0.940098
Pb       7.66731      0.05286      8.39773         0.176770     -0.875431     -0.777914
Pb       7.92025      3.90809     12.42293        -0.306868      0.716416      0.407143
Pb       8.23060      0.31163     12.77719        -1.892556     -1.323973     -0.902163
Pb       7.50873      7.87932      4.06124         1.130401     -0.348731      0.683246
Pb       7.60700      7.91834      0.27007        -0.150412     -0.735821     -1.351559
Pb       7.68431      8.09006      8.29319         0.541492     -1.265664     -0.416869
Pb       7.67873      8.07697     12.54373         0.326921     -2.091841      0.775752
Pb       7.66119     11.84762      4.02728         1.160854     -0.229402      0.731139
Pb       8.01703     12.15421     16.60103        -1.224678     -1.604533     -0.048794
Pb       7.58896     11.38593      7.95445         1.213577      2.154973      1.268786
Pb       7.94148     11.40485     12.79206        -0.173483      1.352169     -1.083291
Pb      11.26031      3.73772      3.90880         2.228130      0.214726      0.204540
Pb      11.86129      3.69795     16.53855        -0.979156      1.580165      0.587533
Pb      11.68660     15.31132      4.35465         0.095211      0.673799     -0.543818
Pb      12.13635     15.59618      0.34689        -0.990612      0.111935     -0.598010
Pb      11.54656      4.07598      8.62792        -0.104349     -0.121928     -1.076182
Pb      11.59188      0.34054      8.12373         0.009951     -1.717914      0.169027
Pb      11.52535      3.36652     12.41192         0.919704      2.694428      0.914765
Pb      11.47794     15.18361     12.28207         0.900822      0.970387     -0.184804
Pb      11.09700      7.51843      4.22501         1.585928      0.583095     -0.487440
Pb      12.00890      7.92646     16.61567        -0.316356     -0.785479     -0.203071
Pb      11.99737      7.54018      8.90020        -1.034693      0.425594     -1.432425
Pb      11.54912      7.67454     12.69960         0.212086      0.446041      0.027779
Pb      11.32000     11.44330      3.87649         1.358538      0.259314      1.403319
Pb      11.93710     11.39738     16.20102        -1.299427      0.482713      2.045714
Pb      11.17741     11.68003      8.26833         0.358943      0.051857     -0.201201
Pb      11.74001     11.55774     12.36550        -1.275774     -0.573705     -1.414263
Ti       1.92584      1.85806      2.46297         1.520996     -0.072496     -0.940091
Ti       1.85026      1.85899     14.77404         2.827647      0.151237     -0.262399
Ti       1.90042     13.72112      2.47982        -0.667798     -0.029313      0.168956
Ti       1.76219     13.71750     14.35881         0.686732      0.435468      2.494251
Ti      13.70028      2.03741      2.13479        -0.767051      0.664585      3.226486
Ti      13.73635      1.93607     14.50746        -0.898797     -1.290058     -0.605622
Ti      13.57241     13.47828      2.01794         1.035742      0.154743      2.825048
Ti      13.47290     13.66866     14.61139         1.470701      1.913036     -0.474616
Ti       1.91729      1.91334      6.16092         0.504287      0.672853      0.580305
Ti       1.82759     13.79356      6.62364         0.499476     -0.176287     -1.928683
Ti      13.50788      1.92837      6.07421         0.381482      1.728092     -1.151488
Ti      13.44254     13.41366      6.21530        -1.831886     -0.094206     -0.489665
Ti       1.80978      1.85964     10.26544        -1.045617      0.263733     -0.946218
Ti       1.97700     13.63738     10.39285        -0.311657     -1.868476     -0.462444
Ti      13.45607      1.86039     10.47154         2.288753      0.293019     -0.492921
Ti      13.40148     13.48113     10.13592        -1.019098      0.221595      1.041234
Ti       2.07710      5.85654      2.24904         0.367025      0.647582     -0.821824
Ti       2.05765      5.71513     14.91068        -1.468136      1.485103      0.926284
Ti      13.73190      6.05588      2.28078        -0.685613     -1.332991      0.387448
Ti      13.79637      5.74090     14.80330        -0.938548      1.776449      0.800239
Ti       2.11468      5.85973      6.59006         0.328558     -0.401619     -1.139013
Ti      13.82404      5.73307      6.25190        -0.916555     -0.379933     -1.954510
Ti       2.00307      5.77751     10.57474         0.553909      0.849365     -2.876649
Ti      13.75559      5.67953     10.85134        -2.255299     -1.801089     -1.119871
Ti       1.96676      9.78362      2.07985        -0.264594     -0.321158      1.975732
Ti       1.99344      9.88077     14.59457         1.568658      0.098602      0.009653
Ti      13.75862      9.69904      2.36355         0.214960      1.944910      0.984668
Ti      13.81456      9.75485     14.39363        -3.197164     -2.748311      0.375639
Ti       1.79059      9.61292      6.36911         0.502081      1.001030     -0.427243
Ti      13.61708      9.49545      6.28983        -2.425597      0.834912     -1.889794
Ti       1.84135      9.75081     10.72268         2.023045      0.733654      0.054206
Ti      13.75243      9.50705     10.58717        -3.899275      1.888385     -1.047594
Ti       6.03325      1.97248      2.13596        -0.483032      0.336953      1.974338
Ti       5.81801      1.90462     14.55384        -0.126313      0.886149     -0.499707
Ti       5.85422     13.68149      2.22397         0.258464     -0.287532      0.311595
Ti       5.51681     13.90265     14.47626         2.464363     -3.449702     -0.851933
Ti       5.75331      1.83895      6.22401         1.426335      0.247103      0.179286
Ti       5.71586     13.66376      6.29924         2.163252      0.385754      1.840423
Ti       6.03833      1.96142     10.53381        -1.220213     -3.350899     -1.546663
Ti       5.78455     13.81756     10.37753         3.230261     -1.515437      1.090817
Ti       5.77471      5.96251      2.04956         1.286041     -1.224312      2.761584
Ti       5.77929      5.78430     14.66005         1.178213      0.037689     -0.456824
Ti       5.87438      5.92658      6.12560         0.765583      0.377760     -1.419810
Ti       5.86004      5.82966     10.58332         1.707013      0.897536     -0.230256
Ti       5.85394      9.86233      2.19760        -0.053232      0.506787     -0.976560
Ti       5.73869      9.83073     14.68337         1.332929      0.496457      0.729915
Ti       5.71852      9.66923      6.27788         1.077033      1.118356     -1.460216
Ti       5.75506      9.80670     10.69150         0.105299     -0.517021     -0.825084
Ti       9.80897      1.83807      1.82845        -0.189907      0.174474      1.346493
Ti       9.84270      1.89130     14.73891         0.142390      0.155216      0.198861
Ti       9.93781     13.69122      1.93687        -0.847566     -4.226446      0.554114
Ti       9.80270     13.55523     14.44954        -1.405803      0.943823      1.733036
Ti       9.62354      1.85919      6.33804        -1.690746      1.530610     -1.039257
Ti       9.51864     13.57804      6.26520         0.800727     -0.678026     -0.197053
Ti       9.72326      1.83440     10.28896        -1.705656      0.573350     -0.666588
Ti       9.46749     13.47981     10.53912        -1.491147     -1.410376     -2.503948
Ti       9.77894      5.96401      1.87226         0.927335     -1.555381     -0.195438
Ti       9.78524      5.90693     14.60774        -0.677229     -1.391008      0.773447
Ti       9.84872      5.72668      6.34617        -0.667636     -0.204836     -0.318392
Ti       9.78682      5.80650     10.67887        -1.427522     -0.472784     -0.531298
Ti       9.57749      9.72260      1.89265         0.824564      0.052551      2.284028
Ti       9.64503      9.64914     14.82705        -0.031472     -0.820717     -1.091000
Ti       9.79226      9.49656      6.22448        -0.339545      0.303705      0.318798
Ti       9.64544      9.51491     10.41215         0.942789      2.994198      0.755524
O       1.93014      1.76343      0.62244         0.381662     -0.007433     -1.997620
O       2.15881      2.33144     13.01992        -1.645497     -1.289127     -0.350229
O       2.10188     13.74582      0.70490        -0.540461      0.035985     -1.294337
O       1.83632     13.83827     12.68228        -0.475358     -0.150869     -3.008383
O      13.79054      1.68053      0.39509         0.192510      0.446254     -1.668799
O      13.60833      1.94422     12.67241         0.387635     -0.329806      1.763872
O      13.62553     13.66719      0.20070         0.123320     -0.559377     -0.949514
O      13.42165     13.67147     12.72591         0.758331     -0.422415      0.552732
O       2.13824      2.13412      4.25333        -0.655846     -0.214246      2.874478
O       1.89686     13.46874      4.75147        -0.038068      0.175803     -1.245586
O      13.55796      1.86915      4.28599        -0.374580     -0.128724      0.078124
O      13.27834     13.80723      4.37461         1.565757     -1.664652      1.963890
O       1.73823      1.97161      8.51654         0.484833     -0.573145     -0.184374
O       1.80622     13.46206      8.45874         0.718314      0.386249      3.359640
O      13.42300      2.13926      8.70817         0.024070     -1.054571      0.025791
O      13.21936     13.55303      8.43194         0.813962      0.613522     -0.876821
O       2.07923      6.17505      0.47515         0.091373     -0.569816      0.232605
O       1.94033      5.79713     13.01266        -0.232960     -0.829962     -0.794526
O      13.69903      6.10867      0.53356         0.650706     -0.210343     -1.412037
O      13.76368      5.83262     13.01623         0.450748     -0.345653     -0.795529
O       1.98107      5.79963      4.74966         0.274812      0.282575      0.016083
O      13.85376      6.02516      4.44351        -0.404711     -1.345557      0.834249
O       2.02511      5.74943      8.67471        -0.773016      0.447902      2.107316
O      13.37426      5.57658      8.90692         0.914065      1.274831      0.800191
O       1.81417     10.01384      0.23365         0.016668     -0.337988      0.821506
O       2.03601      9.74626     12.87678         0.026738      0.410042     -1.323904
O      13.96697      9.90818      0.27327        -1.071943     -0.664080      0.760833
O      13.53791      9.56108     12.65828         0.017598      1.362757     -0.637121
O       1.96095      9.64656      4.56040         0.202498      0.426188      1.317928
O      13.56384      9.81546      4.32110        -0.443789     -1.160377      2.253696
O       1.79924      9.75063      8.88504        -1.065453     -0.493085      0.363577
O      13.67497      9.68261      8.69515         1.009773     -1.644876      0.965243
O       5.65170      2.02510      0.37553         0.914008     -1.620780     -1.062992
O       5.66192      1.80547     12.68071         0.351407      0.411029      1.258650
O       5.98445     13.55690      0.38376        -1.004208      0.459732     -0.193416
O       5.89365     13.64497     12.67257        -1.580428      0.888554      1.317275
O       5.87451      1.96275      4.45746        -0.179215     -0.263428     -0.364465
O       5.90612     13.66117      4.53817        -0.718976     -0.507255     -0.930606
O       5.96095      1.72846      8.50677        -1.177396      0.594268      1.305637
O       5.91179     13.65015      8.53186        -0.785342      0.786253      0.991632
O       5.78848      5.89620      0.28410         0.040561     -0.120248     -0.537964
O       5.79616      5.40472     12.89180        -0.711143      1.192627     -0.340834
O       5.85459      5.70664      4.21607         0.776948      1.098225      2.788636
O       5.94511      5.86899      8.72239        -0.454067      0.135072      1.281212
O       5.99257      9.53890      0.23006        -0.375105      0.740539      1.217415
O       5.55105      9.69848     12.80242         0.917516     -0.349147     -1.150389
O       5.75196      9.72879      4.37263         0.022221      0.388982      0.594289
O       5.79879      9.72537      8.67373         0.109523     -0.668012      0.019775
O       9.80913      1.69080      0.08948        -0.090284      0.130766     -1.002825
O       9.71268      2.17171     12.65511        -0.707793     -2.105155      1.554481
O       9.91731     13.62357      0.14091        -0.911731      0.195692     -0.661709
O       9.82670     13.52674     12.68220        -0.790628     -0.510401      0.058667
O       9.78540      1.84712      4.32398        -0.194193      0.303667      0.819343
O       9.75977     13.33897      4.36495        -0.419574      1.820502     -0.272084
O       9.66355      1.91930      8.33214         0.521206     -0.710603      2.812062
O       9.42984     13.43816      8.70268         0.366683      0.625300     -0.058406
O       9.92502      5.75669      0.13000        -0.982527      0.868294     -0.291049
O       9.48577      5.84607     12.75636         1.485701     -0.918888      1.285417
O       9.85669      5.53767      4.35928        -0.294692      0.753169      1.439558
O       9.77316      5.88126      8.77562         0.824357      0.236954      0.747857
O       9.74427      9.40513      0.08276        -0.944774      0.506824     -0.631960
O       9.51443      9.74806     12.54607         0.671108     -0.232282      2.032759
O       9.76352      9.62108      4.41017         0.029828     -0.236803      0.950894
O       9.51203      9.73446      8.50059         0.396649     -0.941598      1.460547
O       4.11260      1.78675      2.62364        -0.683146      0.050425     -1.619168
O       3.89800      2.03108     14.93133        -0.121539     -1.260139      0.403576
O       3.85865     13.66844      2.66519         1.670705     -0.584903     -0.328114
O       3.80531     14.13230     14.79921        -1.685666     -1.235931     -0.027917
O      15.58481      1.90487      2.59359         0.449400     -0.138968     -0.717002
O       0.14561      2.23540     15.08468        -3.402008     -0.401064     -0.333427
O      15.58932     13.86220      2.62900        -0.328197     -1.383288     -0.516238
O      15.53401     13.76085     14.88413        -0.840460     -0.953790     -0.718943
O       3.80499      1.78460      6.40666         0.950155     -0.025098      0.752970
O       3.75071     13.45067      6.66294         1.752298      0.673456     -0.065616
O       0.04242      2.17163      6.06059        -0.601583     -0.674149      0.932239
O       0.00482     13.61985      6.56926        -3.495011     -0.566597      0.475050
O       3.72029      1.98889     10.61501        -0.138480     -0.626637     -0.072343
O       3.89153     13.43791     10.55827        -1.402851      1.086334     -0.504903
O      15.50441      1.87995     10.53413        -0.754936     -1.005705      0.835849
O      15.35252     13.83534     10.29193        -0.266163     -1.016649      0.102253
O       4.05903      5.66202      2.63849        -0.557425      1.326909     -1.779197
O       3.85441      5.89882     15.00496         1.722238     -0.056511     -0.313127
O       0.16841      6.06921      2.58737        -0.013474     -1.576105     -1.049983
O       0.14712      5.87704     15.22035        -2.124100      0.218169     -0.580013
O       3.99139      6.10267      6.71007        -0.271703     -0.605113     -0.307823
O       0.05195      5.34534      6.51756        -0.771827      1.482023      0.801028
O       3.85718      5.98183     10.75717        -0.614249     -1.474955      0.274938
O       0.02339      5.88830     10.89116        -0.708434     -0.049003     -0.300872
O       3.84769      9.90202      2.29770         0.203783     -0.085208     -0.539510
O       4.01335      9.93821     15.06764        -2.759180     -0.523748      0.304279
O       0.01215      9.71345      2.67672         1.173522      0.354925     -1.365979
O      15.56673      9.98532     14.65871         2.661906     -0.430310      0.084188
O       3.96150      9.47447      6.56474        -1.988406      0.572938      0.378683
O      15.42501      9.77996      6.42722         1.478246      0.095847      0.938295
O       3.81378      9.67142     10.55186        -0.656323      0.327356      0.545555
O      15.46609      9.70421     11.07418         1.783813     -0.383335     -0.655531
O       7.93709      1.71976      2.16583         0.516799     -0.203959      0.080608
O       7.75151      1.66516     14.81978         0.708630      1.186771     -0.115453
O       7.88661     13.72631      2.28426        -0.508611     -1.135817     -0.285327
O       7.77144     13.57101     14.74641         1.360748      0.386487      0.802594
O       7.66995      2.12375      6.30084         1.481176     -0.533443      0.832824
O       7.69094     13.48198      6.48781        -1.554965      0.510397     -0.085115
O       7.78943      1.88365     10.64839         1.684671     -0.153281      0.100583
O       7.61510     13.73053     10.89347        -0.230540      0.111066     -0.787434
O       7.86785      5.78064      2.37157        -1.422871      0.767184     -1.497751
O       7.87779      5.63040     15.05744        -0.569720      1.723839     -1.392467
O       7.77129      5.83476      6.34833        -1.179449     -0.587632      0.670892
O       7.74087      5.85143     11.12715        -1.119606     -0.231019     -1.874584
O       7.76362      9.81410      2.73743        -0.419486     -0.710098     -1.962511
O       7.70878      9.57295     14.85805         2.269188      0.170632     -0.468981
O       7.86201      9.62885      6.46571        -1.282826      0.392817      0.133657
O       7.64284      9.39325     10.74044         0.081777      1.106740     -0.937413
O      11.64975      1.72371      2.23890         0.331141      0.924542     -0.682250
O      11.80355      1.69964     14.99070        -0.274357      1.921186     -0.784175
O      11.75018     13.19035      2.19107        -1.009387      1.664369     -0.348592
O      11.64608     13.38522     14.72673         1.391752      0.646282      0.174635
O      11.57919      1.71932      6.28178         0.059483      0.547496      0.467278
O      11.42734     13.46853      6.40850         2.570340      1.742517      0.452299
O      11.59463      1.90241     10.66640        -0.707532      0.451309     -0.327247
O      11.35067     13.51844     10.66822         2.695674     -0.421951      0.166469
O      11.65311      5.69412      2.31084         1.136156      1.441432      0.525020
O      11.82966      6.01251     15.19596         0.869798     -1.067041     -1.475860
O      11.69296      5.93836      6.37102         0.300788     -0.957262      0.818866
O      11.62498      5.56151     11.14363         0.265577      0.626613     -1.003165
O      11.29208      9.43439      2.19094         2.422120      0.352870      0.350516
O      11.71307      9.54183     14.85211        -0.474095      1.410292     -0.436728
O      11.62689      9.51775      6.68524         0.617579      0.084507     -0.448430
O      11.63227      9.79799     10.67167        -0.540973     -0.706002     -0.124379
O       2.19013      4.00632      2.41857        -1.428326     -0.869071     -0.358451
O       1.96009      4.00767     15.28987         0.356152     -1.787059     -0.010999
O       1.99229     15.55479      2.62561        -0.030386      1.793839      0.547321
O       1.62608      0.05344     14.69932         0.517234      0.848333      0.592821
O      13.69414      3.87212      2.15105         0.140430     -0.450579      0.053603
O      13.63381      3.90859     15.04414         0.543561     -1.049835     -0.214216
O      13.47484     15.38844      2.41254        -0.078589      0.549969     -0.900003
O      13.63968      0.04591     14.77575         0.702655     -0.398792      0.031733
O       2.13180      3.77252      6.68249         0.373449      0.876574     -0.087521
O       1.66061      0.02699      6.46671         0.414870      0.258174      0.480405
O      13.58771      3.69885      6.59865        -0.635704      1.525640     -0.203556
O      13.62291      0.05076      6.45670        -0.225448     -0.700044      0.291338
O       1.67389      3.80268     10.54267         0.748147      1.509545      1.463804
O       1.84184     15.55354     10.40732         0.638285     -0.352270      0.717893
O      13.74963      3.81304     10.89177        -0.288726      0.548337      0.060916
O      13.08405     15.43530     10.55330         2.056962      1.029405     -0.111700
O       2.20191      7.93020      2.63010        -0.842197     -0.169059     -1.207629
O       2.12130      8.01134     14.90277        -0.627763     -0.012366      0.241671
O      13.99752      7.91122      2.50217        -1.618140     -1.595199     -0.668492
O      13.62621      7.99316     14.79947         1.571067     -1.773896      0.780365
O       1.83113      7.80085      6.96636        -1.124292     -0.209821     -0.350188
O      13.80336      7.65368      6.44604         0.316454      0.220236      1.452355
O       1.88759      7.69101     11.17270        -0.326696      0.754485     -1.658701
O      13.30354      7.64105     10.98757         1.695493      0.060761     -1.547451
O       1.82766     11.64610      2.62740         1.029186      0.265923     -1.262292
O       1.91239     11.88822     14.85332         0.335772     -0.346287      0.152717
O      13.55212     11.61654      2.59321         1.273058      0.255797     -1.419211
O      13.65398     11.63642     14.67871        -0.153674      1.770957     -0.267657
O       1.84171     11.54801      6.69515         0.462996     -1.445652     -0.014098
O      13.32321     11.67762      6.69839         1.534501     -0.604530     -0.870228
O       1.76226     11.82480     10.87238        -0.564506     -0.957460     -0.416028
O      13.51752     11.63296     10.57816         0.734245      0.101162      1.000943
O       6.21253      3.79191      2.38267        -1.619435      0.133376     -0.914459
O       5.78274      3.80134     14.90932         0.631042     -0.709088      0.594196
O       5.95843     15.51214      2.51980        -0.394505     -0.038810     -0.826679
O       5.88081     15.57173     14.81954         0.317635      2.099012      0.794587
O       5.63659      3.99858      6.53158        -0.344918     -0.396777     -0.298159
O       6.01058      0.02375      6.47921        -0.865838     -1.603843      0.009323
O       5.79884      3.58778     10.71471        -0.685273      5.950582      0.122255
O       5.68970      0.02140     10.74335        -1.210079     -0.570791     -0.876531
O       5.81809      7.93566      2.33692         0.005521     -2.274206     -0.257557
O       5.88465      7.61340     14.72236        -0.519593      0.752475      0.306145
O       6.05050      7.85458      6.19293        -0.482489     -1.421609      1.010548
O       5.69856      7.70502     10.78193         0.037648     -0.341683      0.108416
O       5.95285     11.60524      2.42830        -0.460872      2.852171     -0.500054
O       5.97227     11.62771     14.61072        -0.410611      0.977626      0.315840
O       5.76913     11.61542      6.52666        -0.628776      0.133979     -0.243152
O       5.82886     11.63731     10.81117         0.672972     -0.338481     -0.978291
O       9.77929      3.94907      2.01520         0.431862     -2.926370     -0.150194
O       9.78606      3.86142     14.85167         0.751263     -2.100576     -0.032545
O       9.85217     15.35365      2.30429         0.771169      4.067698     -0.030910
O       9.83706     15.50737     14.51691        -0.191193      0.347600      0.098906
O       9.51601      3.90332      6.81550         1.880844      0.006741     -1.241789
O       9.54031     15.52469      6.60692         0.026560      1.508524     -0.508590
O       9.60232      3.83458     10.65663         0.497685     -0.465360     -0.173117
O       9.56052      0.00023     10.68967         0.975520      0.819317     -0.100767
O       9.40367      7.65468      2.35843         0.595352      2.190102     -0.123535
O       9.93327      7.68694     14.53699        -1.143397      1.842594      0.706181
O       9.58485      7.62012      6.38450         0.403958      0.669312     -0.152113
O       9.75744      7.74188     10.93950         0.498067     -0.549199     -0.978455
O       9.75198     11.56059      2.30065        -1.450375      0.188241     -1.432457
O       9.83460     11.59261     14.86289        -0.907291     -0.699168     -0.434274
O       9.60331     11.80686      6.42727         0.165618     -3.712923      0.983539
O       9.46662     11.59287     10.64212         0.051052     -0.697023      0.551598
