  # total energy = -7882.50072869 
CRSYTAL
PRIMVEC
    15.464    0.0000000000000000    0.0000000000000000
     0.0000000000000000   15.464    0.0000000000000000
     0.0000000000000000    0.0000000000000000   17.350608
PRESSURE
0.944702 0.740274 -1.60942 -0.420813 -0.101841 0.004308
PRIMCOORD
320 1
Pb       4.01169      3.82996      4.43008        -0.575915      0.552641      0.115130
Pb       4.03638      3.75344     17.12675        -0.721615      0.523385      0.851650
Pb       3.81171      0.18915      4.24330        -0.243400     -0.829129      1.049595
Pb       4.01101      0.09955     17.25183        -0.626762     -0.318071      0.272692
Pb       0.14977      3.81890      4.44440        -0.361504     -0.029240      0.071853
Pb      15.39910      3.68901     17.27587         0.376838      0.432869      0.536682
Pb      15.33029     15.43329      4.10263         0.760581      0.123280      1.755651
Pb      15.39315      0.01532     17.32465         0.429278     -0.560120      0.416199
Pb       3.81427      3.92396      8.57918         0.483504     -0.187624      0.946502
Pb       3.88943     15.36917      8.51504        -0.359783      0.217412      1.302560
Pb      15.38253      3.77769      8.52077         0.400299     -0.195335      0.913037
Pb      15.36548     15.41204      8.57687         0.234432      0.060491      0.504794
Pb       3.73742      3.75869     12.87095         0.878985     -0.009387      0.640265
Pb       3.92392     15.30876     13.03597         0.503732      0.590857     -0.101949
Pb       0.07670      3.98636     12.91542        -0.277943     -0.404958      0.420520
Pb       0.08651      0.12179     12.91514        -0.504533     -0.262310      0.642325
Pb       3.72710      7.82784      4.19475         0.600604     -0.678714      1.071297
Pb       3.65956      7.64702     17.34243         0.464458      0.205519     -0.093806
Pb      15.32175      7.72227      4.22426         0.516122      0.226066      0.734071
Pb      15.40300      7.70119     17.23968         0.056786      0.068747      0.531272
Pb       3.97366      7.85889      8.63133        -0.430406     -0.848731      0.611893
Pb       0.17408      7.59821      8.77230        -0.588602      0.295380      0.013102
Pb       3.86711      7.68730     12.89486        -0.142674     -0.036678      0.200608
Pb       0.08275      7.86424     12.85120        -0.342755     -0.342005      0.539474
Pb       3.92537     11.67426      4.30866        -0.340593     -0.404266      0.112977
Pb       3.97405     11.55287     17.28393        -0.477133     -0.226216      0.296660
Pb      15.28844     11.66343      4.29886         0.761408     -0.573090      0.327801
Pb      15.46108     11.64500     17.25546         0.010033     -0.372387      0.637136
Pb       3.85752     11.61166      8.72570        -0.170216     -0.049800     -0.251152
Pb      15.29461     11.55422      8.51925         0.084252      0.128510      0.562409
Pb       3.81181     11.47445     13.00693         0.782500     -0.026889      0.298301
Pb      15.43594     11.70723     12.77257        -0.480300     -0.447563      1.264865
Pb       7.70498      3.78046      4.42661        -0.072363      0.348849     -0.322719
Pb       7.78409      3.84085     17.29481        -0.259738      0.255812      0.526033
Pb       7.84900     15.43327      4.23073        -0.888139      0.279489      0.542428
Pb       7.62738      0.04560      0.07139         0.346917      0.089676      0.138906
Pb       7.81540      3.95944      8.50831        -0.173957     -0.956393      0.788994
Pb       7.75803      0.08041      8.58795        -0.643832      0.267100      0.408336
Pb       7.77674      3.79366     12.94952        -0.210307     -0.142242      0.516086
Pb       7.94840      0.02799     13.08743        -0.903383     -0.209739      0.028806
Pb       7.73201      7.84472      4.29724        -0.062541     -0.402188      0.055744
Pb       7.81692      7.72243     17.34091        -0.374214     -0.096759      0.209159
Pb       7.85559      7.67634      8.68423        -0.448651     -0.150858     -0.088602
Pb       7.71716      7.67578     13.00196        -0.007619     -0.203080      0.207256
Pb       7.75093     11.66877      4.32557        -0.250239     -0.644104     -0.151886
Pb       7.66310     11.47107     17.28446         0.081413      0.036206      0.482746
Pb       7.63750     11.70548      8.49847         0.111582     -0.322687      0.903366
Pb       7.76734     11.46871     12.93022        -0.545487      0.575561      0.533014
Pb      11.38989      3.79429      4.47784         0.760905      0.062590     -0.557443
Pb      11.47706      3.92571     17.31753         0.544416     -0.030154      0.605363
Pb      11.63476     15.36049      4.33802         0.094288      0.432708     -0.088872
Pb      11.53264      0.05741      0.07852         0.324341     -0.396770      0.046176
Pb      11.66378      3.93418      8.77069        -0.316716     -0.832014      0.004363
Pb      11.42575     15.35473      8.46240         0.799075      0.614231      1.213480
Pb      11.63308      3.91672     13.03924        -0.293962     -0.508482      0.335248
Pb      11.50102     15.35553     13.13008         0.339114      0.211512     -0.276473
Pb      11.57895      7.66567      4.19816         0.030047      0.174643      0.556191
Pb      11.55983      7.62085     17.21414         0.450577      0.542080      0.862843
Pb      11.54887      7.57852      8.77067         0.439731      0.656442     -0.194977
Pb      11.41860      7.63539     13.03297         0.466950      0.601970      0.061567
Pb      11.50404     11.64461      4.28480         0.340221     -0.806960      0.574368
Pb      11.48565     11.71652     17.22664         0.443033     -0.702461      0.769412
Pb      11.31757     11.53465      8.55280         1.230491     -0.090758      0.492966
Pb      11.59699     11.66288     12.75102        -0.019238     -0.273315      1.130362
Ti       1.90364      1.94234      2.38301        -0.912547     -0.334771     -1.453032
Ti       1.92950      1.80347     15.37124         0.564996      0.772751     -1.756257
Ti       1.98267     13.48101      2.41075        -1.331059     -0.213381     -1.137372
Ti       1.95040     13.43892     15.41790        -0.138879      0.090659     -0.312761
Ti      13.43828      1.94398      2.38601         0.514113      0.075777      0.703530
Ti      13.50814      1.90210     15.38613        -0.413498     -0.444738      0.387818
Ti      13.49108     13.46660      2.35321         0.421436     -0.247174     -1.362490
Ti      13.45978     13.50183     15.40890         0.289237     -0.407252     -1.267464
Ti       1.92513      1.86244      6.81364        -0.666156     -0.443675     -0.338360
Ti       1.87836     13.43742      6.67143        -0.199089      0.659784     -1.658388
Ti      13.40622      1.93053      6.65057         0.578516     -0.907365     -1.713650
Ti      13.43051     13.53739      6.70515         0.492917     -0.440213     -0.196626
Ti       1.95325      1.87210     11.02736         0.379884     -0.209449     -1.348054
Ti       1.95251     13.53367     11.07573         0.592822      0.544129     -1.819987
Ti      13.48526      1.91217     11.12868        -0.631597     -0.204460     -0.735340
Ti      13.49205     13.62106     10.99787        -1.022049      0.001142     -1.397822
Ti       1.89945      5.74443      2.41624         0.376015     -0.162184     -0.429745
Ti       1.93970      5.66531     15.39805         0.411569      0.380702     -0.834327
Ti      13.54628      5.65272      2.38435        -0.594860      0.162938     -1.195958
Ti      13.57671      5.73907     15.38678        -0.238790      0.642717     -1.680388
Ti       1.93766      5.79589      6.84079         0.254824      0.209418     -1.939875
Ti      13.49638      5.76409      6.59944         0.034335      0.454934     -0.364446
Ti       1.97241      5.72129     10.95097        -0.147705      0.978825     -1.697672
Ti      13.53007      5.77471     11.11071        -0.140369      0.758168     -0.536863
Ti       1.91356      9.64923      2.40460        -0.514214      0.435624      0.008436
Ti       1.87736      9.61926     15.32467         0.610266     -0.309299      0.002652
Ti      13.48068      9.57609      2.35284         0.132567      0.375226     -1.842030
Ti      13.47036      9.65258     15.34608         0.104512     -0.160148     -1.473379
Ti       1.85334      9.61866      6.74820         0.034032     -0.378527     -0.008458
Ti      13.46337      9.57052      6.77491        -0.728767     -0.133289     -1.134655
Ti       1.93146      9.72546     10.96327         0.747509     -1.137222      0.043057
Ti      13.47452      9.65435     10.98811        -0.571215     -0.930396     -1.181365
Ti       5.75896      1.96036      2.40880         0.634625     -0.204245     -1.025603
Ti       5.88580      1.98027     15.25670        -0.615809     -0.293413     -1.828134
Ti       5.76513     13.56019      2.37437         0.124307     -0.829230     -0.354924
Ti       5.80418     13.53462     15.44978        -0.178041     -0.295693     -2.178359
Ti       5.73743      1.87954      6.73872         0.504010      0.253595     -0.660196
Ti       5.72348     13.49025      6.65264        -0.110648      0.906738     -0.641155
Ti       5.87886      1.90608     11.04314        -0.580970     -0.752136     -1.643085
Ti       5.81092     13.52568     11.00710        -0.545232      0.329713     -0.117049
Ti       5.77206      5.78063      2.41182         0.732289      0.272224     -0.766726
Ti       5.80281      5.84143     15.29569        -0.398942      0.026646     -1.197832
Ti       5.84304      5.76439      6.74468        -0.413205      1.017461     -0.656759
Ti       5.87373      5.72746     11.03700        -1.141307      0.018906     -0.137382
Ti       5.83120      9.65684      2.29097         0.147930      0.052833      0.741852
Ti       5.77617      9.55930     15.36486        -0.571112      0.739420      0.059089
Ti       5.79816      9.61938      6.75724        -0.172509     -0.505153      0.602189
Ti       5.82453      9.61105     10.98145        -1.108781      0.212301     -0.053439
Ti       9.63181      1.88642      2.35587        -0.193417      0.635733     -0.816297
Ti       9.70228      1.90638     15.50478        -0.186881      0.048605     -1.647899
Ti       9.63277     13.49691      2.38842        -0.246255     -0.044428     -1.168907
Ti       9.53512     13.55282     15.55756         0.433866     -0.246993     -1.211120
Ti       9.59320      1.83848      6.56933         0.212518      1.238922     -0.605268
Ti       9.55844     13.49003      6.62380         0.211721     -0.062186     -1.126209
Ti       9.69514      1.80457     11.03335         0.722460      0.496341     -1.865183
Ti       9.52776     13.46299     10.93555         1.274456      0.203144     -1.450395
Ti       9.65037      5.68751      2.43340        -0.277563      0.593272     -1.030694
Ti       9.62507      5.80257     15.42478        -0.031260     -0.322066     -1.756915
Ti       9.76374      5.74492      6.59264        -1.501566      0.249111     -0.561993
Ti       9.65274      5.65794     11.08584         0.293360      0.171845     -0.737384
Ti       9.69233      9.62986      2.31726        -0.291709     -0.413482     -0.291314
Ti       9.67336      9.66702     15.35037        -0.526570     -0.089706     -0.572396
Ti       9.59960      9.58405      6.76568         0.736272     -0.170335     -1.801722
Ti       9.59727      9.62907     10.99657         1.020233     -0.737472     -0.902463
O       1.85161      1.91390      0.58685         0.228802      0.000533      0.307142
O       1.99145      1.92538     13.53222        -0.499940     -0.314397      0.761336
O       1.73971     13.42525      0.62559         0.704501      0.120538      0.393982
O       1.97442     13.34674     13.65127        -0.076613      0.609626     -0.354737
O      13.53128      1.83643      0.63500         0.164550      0.112185     -0.737533
O      13.42613      1.82610     13.68191         0.239346      0.293630     -0.794413
O      13.49534     13.47320      0.56006         0.034371     -0.077461      0.429685
O      13.39386     13.33979     13.60785         0.130870      0.505919      0.485826
O       1.88974      1.88393      5.05981         0.321985      0.419152     -0.545830
O       1.88605     13.41261      4.87704         0.199521      0.084405      0.661416
O      13.43747      1.86044      4.84235        -0.062114      0.219715      0.485560
O      13.45745     13.42226      4.94265        -0.146037      0.389042     -0.340700
O       1.87753      1.81461      9.25465         0.168480      0.166512      0.386639
O       1.96393     13.53961      9.30143        -0.041618     -0.250908      0.582032
O      13.38201      1.93848      9.37852         0.056976      0.053137     -0.354997
O      13.42837     13.59670      9.20331         0.196760      0.182555      0.749482
O       2.02486      5.82962      0.65511        -0.245291     -0.227709     -0.234966
O       2.02096      5.70441     13.62974        -0.530112     -0.230864     -0.228704
O      13.48826      5.71307      0.57662         0.177624     -0.034070      0.245503
O      13.50997      5.78547     13.55075         0.256387     -0.148082      0.882722
O       1.89612      5.77769      5.01055         0.040074     -0.164150      0.736253
O      13.36663      5.58342      4.84340         0.513337      0.485321      0.474982
O       1.84904      5.77227      9.12374         0.062277     -0.213810      0.810776
O      13.23286      5.83898      9.34101         0.784817     -0.639459     -0.118918
O       1.96523      9.51872      0.67929        -0.113839      0.128770     -0.724563
O       1.88286      9.55000     13.56905         0.219538      0.499699     -0.695663
O      13.43002      9.54323      0.54222         0.197414      0.121676      1.126504
O      13.46217      9.62307     13.53561         0.237904      0.250198      0.860958
O       1.72798      9.47356      5.03853         0.414668      0.181342     -1.088862
O      13.49031      9.58538      4.99958         0.153312      0.170337     -0.010256
O       1.95673      9.63147      9.22360         0.013131      0.251294     -0.278403
O      13.34840      9.53124      9.19099         0.083448      0.291469      0.933642
O       5.71175      2.02124      0.59514        -0.037632     -0.216466      0.296630
O       5.88367      1.90779     13.45358         0.274398     -0.180586      0.931515
O       5.71169     13.43534      0.60862         0.279134      0.539900     -0.213496
O       5.85839     13.56745     13.63907        -0.015139      0.059798      0.695399
O       5.70898      1.88783      4.93732        -0.208455      0.300583     -0.321178
O       5.77941     13.44860      4.90481        -0.135124     -0.041725     -0.391927
O       5.86691      1.80165      9.21303         0.275186      0.291373      0.616812
O       5.74047     13.53109      9.22745         0.207507     -0.371805     -0.278958
O       5.79660      5.67836      0.63500        -0.097039      0.018804      0.350795
O       5.77504      5.92814     13.50001         0.126323     -0.228037      0.455044
O       5.82880      5.85078      4.99710        -0.058467     -0.397737     -0.596610
O       5.84007      5.75463      9.30159         0.464558     -0.210057     -0.721006
O       5.81859      9.67919      0.56838        -0.175034      0.034904     -1.215229
O       5.61682      9.63159     13.63158         0.649646     -0.144330     -1.020698
O       6.02363      9.58684      5.07172        -0.203034      0.253293     -1.678155
O       5.67214      9.59680      9.23303         0.396451      0.585649     -0.524196
O       9.56886      2.05449      0.55300         0.152612     -0.371731     -0.314732
O       9.70654      1.82017     13.68392        -0.367907     -0.137956      0.661923
O       9.62417     13.52534      0.60369         0.071609     -0.197260      0.017799
O       9.56296     13.47086     13.77910        -0.265705      0.595945     -0.270670
O       9.53456      1.87206      4.73972         0.222291     -0.280135      0.818804
O       9.61259     13.49620      4.80161        -0.198285      0.304780      0.360134
O       9.72566      1.82151      9.17962        -0.174041     -0.201913      1.052886
O       9.62259     13.42770      9.10960        -0.375930      0.569167      0.680392
O       9.58685      5.74951      0.57550         0.134576     -0.281383      0.182630
O       9.65838      5.82635     13.59935        -0.131391     -0.178907      0.350538
O       9.71920      5.74725      4.80851         0.013939     -0.094704      0.323708
O       9.70218      5.57116      9.27819         0.014157      0.530157      0.374785
O       9.69228      9.59716      0.55995         0.096668      0.027780     -0.434001
O       9.58470      9.55313     13.59597        -0.094469      0.299225     -0.673452
O       9.54890      9.57742      4.97952        -0.248566      0.194730     -0.140713
O       9.73681      9.53662      9.20703        -0.514155      0.193945      0.139730
O       3.79889      2.00446      2.76856         0.285173     -0.117846      0.111669
O       3.88767      1.81954     15.55096         0.034614      0.213302      0.798708
O       3.86463     13.37910      2.65801        -0.359082      0.233749      0.495085
O       3.90808     13.52246     15.70507        -0.558410      0.445748      0.549954
O      15.42111      1.87337      2.76642        -0.127254      0.188447     -0.123552
O       0.01036      1.83702     15.71376        -0.877553      0.212429      0.103179
O       0.00640     13.52017      2.73984        -1.187361     -0.401814     -0.046139
O      15.42227     13.34693     15.67585         0.157748      0.604907      0.123213
O       3.90560      1.98984      7.17999        -1.137875      0.174793     -0.299490
O       3.78041     13.45315      6.99930         0.574125     -0.453470      0.350857
O      15.42273      1.75223      7.13943         0.090178      1.067422     -0.139792
O      15.43793     13.54297      7.08542        -0.721236     -0.084608     -0.000861
O       3.97297      1.86282     11.37924        -1.254421      0.081061      0.080168
O       3.90780     13.68146     11.32378        -0.431220     -0.671255      0.568179
O      15.41020      1.91417     11.40647         0.686634      0.112851      0.323137
O      15.42822     13.54500     11.34967         0.192169     -0.023147      0.145892
O       3.89457      5.77660      2.81734        -0.494998     -0.178944      0.086262
O       3.85965      5.79629     15.70567         0.181772     -0.063339      0.406056
O       0.01040      5.73179      2.73217        -0.667187     -0.035025      0.166885
O       0.02032      5.66107     15.75004        -0.355098      0.243386      0.079039
O       3.86700      5.76273      7.16257         0.043569     -0.214655     -0.318684
O      15.37338      5.82101      7.07006        -0.449169      0.083882      0.077244
O       3.79566      5.76476     11.20142         0.985482     -0.383652      0.725706
O       0.02024      5.74510     11.29532        -0.511554     -0.248785      0.448255
O       3.91339      9.71077      2.73405        -0.806152     -0.412745      0.245924
O       3.86475      9.58761     15.72789        -0.183182      0.019809      0.394822
O      15.42830      9.69542      2.75512        -0.792143     -0.784196     -0.064291
O       0.00695      9.64287     15.66146        -0.551942      0.119027      0.401629
O       3.83251      9.59536      7.05346         0.038236      0.767940     -0.091116
O      15.36263      9.42442      7.16275        -0.002444      0.682224      0.208097
O       3.84757      9.59374     11.35555        -0.128734      0.164322      0.286320
O       0.03364      9.75063     11.20989        -0.562230     -0.055985      0.543053
O       7.64958      1.89665      2.59817        -0.008313     -0.330659      0.649613
O       7.69757      1.94263     15.72256         0.615395      0.273778      0.265501
O       7.69981     13.57016      2.73470        -0.049606     -0.249631      0.058709
O       7.63017     13.48374     15.92930         1.008350      0.514511      0.110329
O       7.64768      1.85302      6.92518         1.166105     -0.340039      0.489186
O       7.66589     13.67184      6.98045        -0.007135     -0.613741      0.177920
O       7.84139      2.02003     11.36585        -0.311954     -0.693141      0.418440
O       7.70815     13.38869     11.30993         0.279606      0.144170      0.377273
O       7.74349      5.69031      2.76351        -0.124524      0.169152      0.205807
O       7.70397      5.74085     15.68486         0.144384     -0.040593      0.298727
O       7.77761      5.76469      7.08016         0.608673      0.655785      0.025183
O       7.74887      5.66449     11.45696         0.261214      0.250265     -0.118583
O       7.74607      9.64054      2.52052         0.436481     -0.125818      0.959042
O       7.73964      9.65480     15.67064        -0.318635     -0.080783      0.522925
O       7.71113      9.53779      7.21853        -0.134310      0.515181      0.249101
O       7.71742      9.73424     11.25734        -0.485248     -0.376843      0.562533
O      11.52017      1.82178      2.62260         0.545914     -0.000585      0.406607
O      11.60205      1.87631     15.83790         0.044372     -0.065977      0.164969
O      11.55261     13.57084      2.72233        -0.107554     -0.415431      0.103612
O      11.50125     13.64504     15.83274         0.234317     -0.615700      0.088639
O      11.52620      1.91507      6.87180        -0.343085      0.003490      0.356944
O      11.49000     13.48011      6.95545         0.024882      0.269408      0.038196
O      11.49922      1.81698     11.59920         0.971709      0.303090     -0.154582
O      11.50654     13.62074     11.33534         0.648791     -0.765785      0.279134
O      11.57264      5.62874      2.74326        -0.164136      0.214932     -0.028358
O      11.55134      5.75880     15.68295         0.396440      0.204877      0.292527
O      11.54517      5.56025      7.04617         0.653714      0.062823      0.068174
O      11.61421      5.82824     11.41353        -0.810664      0.030304      0.518801
O      11.57137      9.70757      2.84562         0.114813     -0.387541     -0.334775
O      11.53306      9.52641     15.66043         0.654099      0.249139      0.219900
O      11.46581      9.74825      7.02680         0.453694     -0.008264      0.322613
O      11.43004      9.54895     11.40636         1.580807      0.109119      0.056796
O       1.81146      3.79687      2.81923         0.581851      0.648154     -0.024067
O       1.91090      3.73661     15.69703         0.178199      0.398125      0.357817
O       1.87296     15.45315      2.74245         0.732125     -0.162177     -0.049572
O       1.90674     15.40601     15.80331        -0.038442     -0.374737     -0.161649
O      13.49093      3.81197      2.69955         0.137708     -0.798129      0.039211
O      13.43895      3.87418     15.72514         0.410804     -1.097557      0.099601
O      13.45500     15.35268      2.74321        -0.098720      0.509311     -0.083909
O      13.48003     15.36947     15.75209         0.373880      0.793002      0.177784
O       1.83787      3.85684      7.11658         0.064046     -0.561774      0.141647
O       1.97516     15.42594      7.02016         0.035974     -0.318400      0.375443
O      13.61266      3.75454      7.03562        -0.604187      1.286693      0.174452
O      13.47293      0.04235      6.94838        -0.405057     -1.401348      0.600353
O       1.91618      3.79001     11.31607         0.035204      0.298028      0.326088
O       1.94594     15.46161     11.47963        -0.245031     -0.327887      0.175219
O      13.43457      3.82981     11.51102         0.257448      0.506572     -0.135058
O      13.50148      0.03649     11.47040         0.168460     -1.175134      0.228487
O       1.81745      7.65745      2.82473         0.579957      0.552089     -0.177324
O       1.91686      7.69280     15.66986        -0.207246     -0.396643      0.647896
O      13.42934      7.63731      2.64368         0.246921      0.477344      0.427804
O      13.57894      7.68482     15.74747        -0.274265     -0.233764     -0.021469
O       1.95724      7.68052      7.16625        -0.296781      0.179829      0.254652
O      13.19252      7.65923      6.94621         0.359380     -0.745743      0.278976
O       1.94579      7.64524     11.37685        -0.558966      0.645257     -0.203046
O      13.63477      7.77607     11.34369        -0.303171     -0.521436      0.240264
O       1.81624     11.51839      2.82062         0.664900      0.434436     -0.107076
O       2.03967     11.53553     15.76733        -0.372502      0.125704      0.143812
O      13.45334     11.53251      2.75928         0.014534      0.710028     -0.119926
O      13.43735     11.52984     15.76073        -0.322947      0.142077      0.165996
O       1.74737     11.53553      7.03836         0.396970     -0.014077      0.361549
O      13.40533     11.61001      7.10327         0.664305     -0.180160      0.044344
O       2.06447     11.62153     11.40721        -0.477152     -0.114942     -0.222908
O      13.42156     11.58441     11.26576         0.288622      0.290660      0.187622
O       5.85469      3.78485      2.86275        -0.677506      0.854125      0.132776
O       5.74301      3.89189     15.50452         0.136819     -0.386582      0.597355
O       5.64227     15.42574      2.73890         0.321550      0.564435     -0.254786
O       5.88501      0.10048     15.79663        -0.343717     -1.065876      0.101772
O       5.89022      3.90224      7.01660        -0.510273     -0.989311      0.262869
O       5.63456     15.45636      6.95022         0.362855     -0.694300      0.288432
O       5.82429      3.81754     11.41580        -0.036489      0.354239      0.083883
O       5.92181     15.43782     11.33695         0.313467     -0.366414      0.519390
O       5.87002      7.73500      2.71006        -0.360430     -0.290865      0.045335
O       5.86068      7.71043     15.70421        -0.002521     -0.433451      0.383570
O       5.76456      7.70108      7.10675         0.406401      0.089964      0.377375
O       5.79946      7.69364     11.26571         0.382809      0.106999      0.689300
O       5.83945     11.57158      2.79369         0.080057      0.138357      0.075002
O       5.78195     11.59392     15.74008         0.108845     -0.297414      0.189609
O       5.76802     11.62757      7.06422         0.175713     -0.635143      0.223689
O       5.71050     11.52362     11.44904         0.119693      0.573362     -0.165544
O       9.63721      3.76100      2.76509        -0.146768      0.559989      0.266810
O       9.71525      3.81230     15.72142        -0.455148      0.613211      0.244829
O       9.54744      0.01077      2.60648         0.351482     -0.919135      0.415670
O       9.59123      0.02968     15.86999        -0.385803     -0.426423      0.265294
O       9.56235      3.76344      6.82910         0.007775      0.311845      0.270039
O       9.64928     15.42928      6.94775        -0.282149     -0.060710     -0.051892
O       9.76605      3.77138     11.37792        -0.012691      0.654882      0.414241
O       9.72216     15.34153     11.44919        -1.318940      0.403525     -0.069588
O       9.73917      7.67267      2.66886        -0.331116      0.185430      0.112047
O       9.60916      7.69322     15.67533        -0.108878     -0.175214      0.546220
O       9.73942      7.68554      6.97593        -0.264455     -1.147507      0.571158
O       9.51333      7.65159     11.44631         0.214067     -0.012071     -0.356848
O       9.62419     11.56474      2.71424         0.034771      0.397607      0.090886
O       9.60834     11.59023     15.69964         0.253903     -0.160558      0.539958
O       9.53510     11.62092      6.92430        -0.502880     -0.101525      0.460605
O       9.65056     11.56590     11.27752        -0.022062      0.172228      0.313167
