  # total energy = -7840.01736980 
CRSYTAL
PRIMVEC
    15.6080000000000005    0.0000000000000000    0.0000000000000000
     0.0000000000000000   15.6080000000000005    0.0000000000000000
     0.0000000000000000    0.0000000000000000   16.6239999999999988
PRESSURE
3.87378 3.10683 1.65378 -0.066778 0.492536 0.094586
PRIMCOORD
320 1
Pb       3.49957      3.94145      4.05974         1.150674     -1.252990      0.995413
Pb       3.75966      3.95889      0.23772        -0.299794      0.835854     -0.565900
Pb       3.64412      0.00150      4.18834         0.637034      0.570597     -0.521629
Pb       3.93010     15.47847     16.26655         0.039900      0.991032      1.518484
Pb      15.40843      3.95385      4.11856         0.838986     -0.560569      0.242643
Pb       0.11095      3.73117     16.38984         0.573287      0.554734      0.420816
Pb       0.20539     15.40209      4.28198        -1.205557      0.993593     -0.535514
Pb       0.03945     15.39359      0.06233         1.097835      0.492361      0.319109
Pb       3.93725      3.96155      8.35542        -0.648666     -0.159980     -0.565772
Pb       3.91534     15.52221      7.89514        -0.187896      1.260955      1.617928
Pb       0.01222      3.98105      8.41159         0.386632     -0.354475      1.168743
Pb       0.27048      0.30223      8.66855        -1.328164     -0.845587     -1.632417
Pb       4.19509      3.80143     12.50073        -1.888042      1.402223      1.032756
Pb       3.89539     15.41615     12.40844        -0.336157     -0.121014      0.724463
Pb      15.45210      3.80484     12.38342         0.936110      0.539855     -0.307232
Pb       0.09430      0.27548     12.63311        -0.473342     -1.202379      0.259296
Pb       3.77350      7.58301      4.31087         0.641157     -0.874334      0.229528
Pb       3.81201      7.89682      0.07552        -0.125726     -1.177788     -0.823268
Pb      15.35860      8.01545      4.34088         0.814599     -0.946325      0.398116
Pb      15.38578      7.85181      0.28373         0.597187      0.469151     -1.814723
Pb       3.65533      7.84445      8.08675         0.325321     -2.334773      1.329638
Pb      15.52435      7.57391      8.40345         1.289164      0.858735      0.123647
Pb       4.09788      7.97196     12.26111        -0.788198     -0.663919      1.227996
Pb      15.60204      7.74723     12.67418         0.700857      0.716169     -0.528308
Pb       4.17962     11.43362      3.79303        -0.815563      0.836371      0.993681
Pb       4.19209     11.52673     16.35807        -0.761025     -0.009485     -0.486887
Pb      15.33244     11.77903      4.31277         1.024156      0.190779     -0.188056
Pb      15.59540     11.63539      0.21386         0.772990      0.215616     -0.942398
Pb       4.17743     11.66520      8.49764        -0.950474     -0.008965     -0.941945
Pb       0.05225     11.47330      8.74903         0.099630     -0.658585     -1.212937
Pb       3.55656     11.66313     12.22192         0.393340     -0.674985      2.090685
Pb       0.02524     11.64134     12.44658         0.505969     -0.388869      0.758156
Pb       7.72551      3.91387      4.44686        -1.376646      1.225199     -0.911154
Pb       7.89118      3.75889      0.25678        -1.299257      1.195925     -1.002223
Pb       7.29838      0.14888      4.07850         1.913057     -0.701014      0.742972
Pb       7.91836      0.23888      0.26523        -1.818478     -0.640690     -1.613516
Pb       8.12755      3.86996      8.74504        -0.117469     -0.194840     -0.605024
Pb       7.82238      0.16037      8.36236         0.449291      0.703099     -0.811170
Pb       7.79691      3.56349     12.70442         0.443545      1.646851     -0.077499
Pb       7.63181     15.40798     12.32735         1.341252      0.235935      1.449982
Pb       7.98430      7.75079      4.02207        -0.363007     -1.503647      0.710018
Pb       7.99412      7.74918     16.39836        -1.166038      0.523609     -0.466935
Pb       7.86447      7.55340      8.12729        -0.274588      0.918273      0.579806
Pb       7.72911      7.60508     12.39301         0.601690      0.441662      0.627927
Pb       7.75315     11.75044      4.34206         0.895124      0.678393     -0.782178
Pb       7.58639     11.40415      0.01529         1.445106      0.426405     -1.461054
Pb       7.66388     11.89935      8.65965         1.939087     -1.092173     -0.655422
Pb       7.44845     11.85684     12.41432         2.519453     -1.622056      2.084382
Pb      11.85166      4.08968      4.06111         0.167363     -1.270623      2.525865
Pb      11.62792      3.80220      0.19488         0.727107     -0.106139     -0.815248
Pb      11.43002      0.25902      3.79582         1.952591     -1.628544      1.177410
Pb      11.44130     15.46991     16.47478         0.927064      1.464463      0.843489
Pb      11.56871      3.67839      8.15863        -0.426844      0.220816      2.651680
Pb      11.44011     15.52795      8.45236         1.324564      1.355713     -0.269049
Pb      11.77400      4.18640     12.53632        -0.178788     -1.106174      0.575209
Pb      11.82841      0.26004     12.48821        -0.553771     -2.041072      1.263140
Pb      11.92408      8.03867      3.87888        -0.824649     -0.649701      0.811401
Pb      11.26204      7.79867     16.54948         3.420023      1.115778      0.236162
Pb      11.27180      7.83482      7.99452         0.811810     -0.044031      0.421211
Pb      11.82439      7.91804     12.23180        -1.291737     -0.747986      0.893610
Pb      11.64032     11.99306      4.33940        -0.365995      0.316636     -0.572295
Pb      11.52379     11.83683      0.33574         0.006990     -1.507105     -1.058551
Pb      12.09904     11.44677      8.33314        -1.981258      0.465530      0.341481
Pb      11.74078     11.86375     12.51807        -0.260710     -0.161156      0.405491
Ti       1.92215      1.94164      2.02091         0.891008     -0.399027     -0.649831
Ti       1.87805      1.91803     14.54203         1.577614      0.551511      0.877746
Ti       2.10549     13.59222      2.18887        -1.922589      0.172379      0.911569
Ti       2.02933     13.48261     14.73733        -0.484715     -0.662113     -0.200509
Ti      13.79353      1.90213      2.11875         0.043203     -0.535580      2.845218
Ti      13.62142      1.80625     14.77718        -0.815495      0.144301     -0.514887
Ti      13.64628     13.71843      2.17004         1.042883      0.774602      1.484638
Ti      13.75885     13.61248     14.85202         0.728360      0.581765      0.614896
Ti       1.73203      1.79241      6.32687         1.413818      1.271077     -1.589832
Ti       2.09667     13.48495      6.23980        -1.224852     -0.308301     -0.229782
Ti      13.47730      1.74799      6.42427         2.941336      0.278750     -1.614292
Ti      13.83526     13.57647      6.45302        -0.437180      2.278862     -0.150860
Ti       2.22220      1.78684     10.49652        -1.249135      1.555284      1.191420
Ti       1.80498     13.51039     10.19420         1.035036      1.009507      0.021302
Ti      13.63260      1.80087     10.43268        -0.851723      0.532158     -0.175755
Ti      13.65592     13.65941     10.42993        -0.113652      0.756237      1.306654
Ti       1.80167      6.00944      2.24770         1.330686     -6.193550     -2.019441
Ti       1.93647      5.93270     14.46676         2.364088     -0.475310      2.570256
Ti      13.69494      5.83120      1.97098        -0.311740     -0.861924      0.772557
Ti      13.74032      5.70736     14.66584        -1.372794      1.006382      0.249342
Ti       1.70472      5.53387      6.44307         4.457891      1.257420     -0.581022
Ti      13.53726      5.83203      6.54458        -2.208781     -0.566569     -2.052621
Ti       2.10003      5.96899     10.76512        -3.106934     -1.788948     -1.850430
Ti      13.61970      5.79780     10.33097         1.414044      0.054133      5.018942
Ti       1.99792      9.69407      2.45313         0.076035      0.574616     -0.935941
Ti       1.98377      9.65077     14.69794        -0.330032     -0.169189     -1.550759
Ti      13.71848      9.80818      2.13971        -1.264585      0.572277      1.011105
Ti      13.67375      9.76419     14.60606         0.430171     -0.990563      2.514464
Ti       2.16462      9.71620      6.26533        -4.137343     -0.445880      0.350316
Ti      13.63221      9.77095      6.34016         1.720842     -2.012673     -1.058619
Ti       1.97085      9.60596     10.36302        -3.344721     -0.193281      0.211747
Ti      13.65461      9.74438     10.60431         1.099571     -1.570416     -1.267688
Ti       5.87657      1.98298      2.07899        -3.239789      1.165035     -0.860842
Ti       5.62145      2.05324     14.64111         3.211914     -0.642120      1.303870
Ti       5.85232     13.64811      1.95293        -0.789895      0.139622     -0.969775
Ti       6.13499     13.72738     14.73811        -0.310362     -0.082179      0.144314
Ti       5.73267      1.89127      6.24948        -0.467649      2.743749      0.114389
Ti       5.98983     13.68563      6.21184        -0.341315     -0.709488      2.564382
Ti       5.87449      1.92001     10.62653        -0.140312     -0.298294     -1.767422
Ti       5.82122     13.60657     10.46105        -0.221988      0.112717     -1.036861
Ti       5.78756      5.71481      2.17701         1.545746     -0.409415     -1.578283
Ti       5.88237      5.91475     14.72045        -1.198158      0.095271     -0.401694
Ti       5.73755      5.83270      6.37801        -0.118916     -0.362862      0.556893
Ti       5.85079      5.77038     10.31245        -0.393574      1.501229     -0.068695
Ti       6.05425      9.54787      2.18031        -1.562027     -0.814167     -2.554548
Ti       5.92091      9.65361     14.43467         0.685248      0.538280      2.074039
Ti       6.01003      9.87170      6.44391        -0.463157     -2.557736     -0.714496
Ti       5.96418      9.73496     10.39574         1.565244     -1.159154      0.662734
Ti       9.76980      2.01594      2.10456        -0.151313      1.319128      1.185778
Ti       9.63050      1.90524     14.72941         2.560421     -0.039772     -1.774265
Ti       9.52887     13.61412      1.91911         0.629647     -2.107232      2.056641
Ti       9.87761     13.63520     14.63672        -1.923168     -1.636051     -0.817053
Ti       9.72361      2.09842      5.97127        -1.476328     -2.849319      3.311534
Ti       9.79636     13.71852      6.47260         0.090573      0.170198     -1.538398
Ti       9.81292      1.95537     10.79936         0.503182     -0.242751     -1.493526
Ti       9.94746     13.62132     10.40769        -0.811111      1.210783      1.623712
Ti       9.74485      5.80879      1.98228        -0.788558      0.259332      2.748787
Ti       9.75724      5.66755     14.68004        -0.695895      0.220546     -1.510242
Ti       9.65559      5.66656      6.33783         1.583242      3.516689     -1.002002
Ti       9.65648      5.88944     10.60949         0.928759     -0.265441     -0.020533
Ti       9.70604      9.81490      2.08852         3.261705     -0.972212     -0.528068
Ti       9.89360      9.87234     14.40811        -1.847786      0.807971      0.248628
Ti       9.67965     10.07456      6.11645         1.408651     -1.921545      2.966936
Ti       9.76556      9.85306     10.42777        -0.643583     -0.984621      0.543050
O       2.06279      1.86657      0.04473        -1.078552      0.614117      2.578544
O       1.99279      1.93482     12.70218        -0.491520     -0.362745     -0.342966
O       1.86273     13.31008      0.46464         0.845429      0.859258     -0.763388
O       1.94543     13.50631     12.95673        -0.075734     -0.042328     -0.613726
O      13.67415      1.80084      0.41310         0.338845     -0.281103     -2.282856
O      13.55910      1.76788     12.90585         1.313991      0.165791      0.237267
O      14.03663     13.67898      0.37674        -1.732585      0.009989      2.268590
O      13.66904     13.66486     13.17147        -0.106985      0.190199     -3.904044
O       1.75503      2.05641      4.50875         0.204265     -0.980492      0.422944
O       2.09088     13.90741      4.46171        -0.095217     -1.159832      0.732357
O      13.44991      1.95471      4.47976         0.238193      0.418047      2.134810
O      13.53123     13.39927      4.64360        -0.061349      0.702275     -0.340838
O       2.30081      2.17383      8.80006        -0.934155     -1.447938     -0.306944
O       1.84255     13.26284      8.40135         0.449576      0.786627      1.037689
O      13.55414      1.78126      8.67444         0.379380      0.496425      0.483612
O      13.46258     13.61641      8.74664         1.181411     -0.844337     -2.346399
O       2.23768      5.80804      0.35157        -1.177586      0.665296      1.556783
O       2.01925      6.09556     12.72375        -0.490050     -1.011697     -1.171787
O      13.27507      5.79677      0.26918         1.336811     -0.195458      0.157943
O      13.84261      5.38802     12.82719        -0.341859      2.126606      1.687506
O       2.05026      5.71597      4.49269        -0.934046      0.143359      0.725578
O      13.86836      5.66028      4.73403        -1.043203      0.231687     -0.039000
O       1.90703      6.02027      8.67301        -0.114808     -0.352794     -1.873465
O      13.47342      5.63984      8.66609         0.210982      0.922210     -2.422011
O       1.88265      9.51363     16.53955         0.299538     -0.139584      2.937671
O       1.84087      9.65335     12.69615         0.121033      0.880081     -0.188985
O      13.95195      9.78803      0.40061        -0.597885     -0.071640     -0.977111
O      13.66489      9.26238     12.92797         0.033952      1.861524     -1.923438
O       2.16466      9.31384      4.27295        -0.118286      1.554522      0.224417
O      13.72643      9.67264      4.31647        -0.896473      0.126984      1.478581
O       1.91226      9.68340      8.39172        -0.861579      0.753611      1.670431
O      13.89412      9.80336      8.76041        -0.970614     -0.175552     -0.478134
O       5.67757      1.79645      0.22807         1.179821      0.620561      0.615699
O       5.75224      1.90108     12.78993         0.638409      0.050656     -0.144388
O       5.76719     13.72245      0.05873         0.973111     -0.586081      3.959753
O       6.07983     13.53099     12.95003        -2.305043      0.798498     -3.116992
O       5.83268      1.89137      4.44806         0.109226     -0.305983     -0.635232
O       6.13935     13.59251      4.48139        -0.575845      0.209537     -0.546053
O       5.77328      1.80413      8.79959         0.253309      0.153780      1.147274
O       6.05978     13.49219      8.52243        -2.111457      0.623405      2.218399
O       5.87127      5.64975      0.28958        -0.036572     -0.018499      0.741293
O       6.04815      6.03245     12.80016        -0.895254     -0.248106      0.545099
O       6.15535      5.97134      4.66372        -0.605028     -0.578811     -0.504259
O       5.81266      5.55840      8.50363         0.424831      0.701398      1.370694
O       6.02168      9.75479      0.31554        -0.624831     -0.805632      1.592518
O       5.90842      9.71367     12.71435         0.320155     -0.486474     -2.807009
O       5.77292      9.50549      4.59688         0.308251      0.898931     -0.747830
O       5.90830      9.94065      8.56123        -0.180791      0.237068      0.331990
O       9.69236      1.75754      0.40547         0.868358     -0.911553     -2.394370
O       9.78937      2.18050     12.78553        -0.453767     -0.168028      2.675943
O       9.63126     13.25112      0.15675         0.346784      1.871884      1.041616
O      10.11962     13.44925     12.87331        -0.364033      0.289146     -0.687072
O       9.79576      2.16012      4.21171        -0.393139     -0.215556     -0.531980
O       9.63770     13.40815      4.54455         0.108697      0.450402      0.981243
O       9.96083      1.93225      8.88584        -1.752258     -0.313482      0.309950
O       9.71697     14.04887      8.65153        -1.188378     -0.788442      0.230493
O      10.06922      5.82659      0.24148        -1.101049     -0.013163      0.137103
O       9.37084      5.64755     12.79647         0.700507     -0.175667      0.202580
O       9.55965      5.52132      4.58860         0.362363      0.215679     -1.463169
O       9.78705      5.63761      8.70965        -0.223199      0.780339      0.379437
O      10.01047      9.84104      0.26154        -0.961331     -0.209618      0.639777
O       9.82460      9.93543     12.58516         0.865026      0.172029      1.066067
O       9.44223      9.86501      4.39283         0.959597      0.083961     -0.949191
O       9.80437      9.84534      8.67002        -0.087221     -0.676161     -0.554279
O       3.88230      2.06780      2.15016        -0.586105     -0.411819      0.923927
O       3.95345      1.77959     14.82464        -2.105373      0.468018     -0.635700
O       3.91128     13.61467      2.51825         2.161461     -0.394359     -0.253110
O       4.07443     13.63782     14.98800        -2.285388     -0.806255     -1.274930
O      15.56768      1.68816      2.54439         1.831708      0.404354     -1.012900
O       0.08185      2.03485     14.71926        -1.411915      0.008043      0.075080
O       0.11182     13.77573      2.67110        -1.477588     -0.676963     -0.637367
O       0.11995     13.63690     15.17551         1.544330     -0.899845     -0.754989
O       3.74326      1.77246      6.47650         2.116127     -0.879907      0.278327
O       3.95107     13.85233      6.44960         0.936212     -1.239948     -0.425294
O       0.05167      2.17843      7.02229        -1.030443     -1.260894     -0.664204
O       0.02117     13.43058      6.33872         0.202782     -0.326593      0.191140
O       3.94057      1.93379     11.09073         0.888614     -0.603045     -1.112838
O       3.79359     13.27710     10.60661         0.712408      1.314809     -0.595434
O       0.00016      1.48088     10.60056         0.250821      1.971269      0.573314
O      15.55467     13.57663     10.61205        -0.059361      0.624266      0.027246
O       4.03354      5.50684      2.48882        -1.608671      1.370561      0.111992
O       3.87482      6.02841     14.85385         1.197910     -0.643422     -0.627404
O       0.01986      5.94620      2.54038        -1.395987     -0.363695     -0.843055
O      15.53488      5.77470     15.07495        -0.026167      0.044196     -0.568482
O       3.79879      5.83435      6.56505         1.353399     -0.257158     -0.103589
O      15.55792      5.72222      6.65066        -1.204076     -0.107827      0.588300
O       3.84287      6.05964     10.68643         4.430899      0.347032     -0.152931
O       0.14684      5.83172     10.59324        -3.620288     -0.067078      0.209511
O       3.85919      9.38207      1.87678        -0.498122      2.325708      2.584650
O       4.07962      9.81969     14.46434        -0.823272     -0.760271      1.602338
O      15.59391      9.55537      2.45722         2.183453      0.258646     -0.195768
O       0.10891      9.59217     14.73532        -2.882160      0.641568     -0.097493
O       3.78722      9.63645      6.75443         3.392536      0.873179     -1.022762
O      15.51983      9.58665      6.41221        -0.144432      0.896331     -0.234213
O       3.67048      9.80677     10.72754         3.701854      0.635655     -0.671767
O       0.01589      9.85634     10.78064        -1.313309     -0.260058     -0.319167
O       7.78054      2.03957      1.99713         0.343402     -0.956587      1.388757
O       7.95508      2.08191     15.11102        -3.080946     -0.330637     -0.489732
O       7.63907     13.51443      2.27641         0.405757     -0.556503     -0.196599
O       7.90417     13.49130     14.59397         1.253310      0.543781      0.884629
O       7.75104      2.04414      6.49731         1.890068     -0.401217     -0.355360
O       7.84984     13.31826      6.80441        -1.135576      1.198938     -1.549801
O       7.77833      1.86371     10.94762        -1.352489      0.162236     -0.962780
O       7.70153     13.54908     10.75050         0.586187      0.670793     -0.535086
O       7.86214      5.70905      2.68793         1.111794      0.285385     -1.893476
O       7.89868      5.91957     14.93510        -1.438968     -0.542637      0.764466
O       7.91259      5.79160      6.71720        -2.599459     -1.009105      0.334613
O       7.74403      5.79669     10.53680        -1.029458      0.177173     -0.135264
O       7.93318      9.81125      2.06701        -3.345260     -1.272915      1.218376
O       7.93707      9.75493     14.77416         0.614335     -1.012998      0.530706
O       7.85928     10.12277      6.50231        -1.432914     -0.336168      0.305306
O       7.82086      9.78761     10.73785        -0.763871      0.396604     -0.911761
O      11.73829      1.99826      2.29918        -1.255274     -0.085351     -0.157147
O      11.67631      1.67878     15.05184         0.427800     -0.318944     -0.113160
O      11.57892     13.65390      2.44990         0.604904     -0.116162     -0.915962
O      11.82098     13.80856     15.09177        -0.820667     -0.692810     -0.003287
O      11.77320      1.71690      6.71077        -2.855232      0.546420     -0.800511
O      11.59241     13.73794      6.84526         0.678058     -0.110624     -1.049536
O      11.67094      1.68914     10.85293         1.647803      2.333980     -0.699781
O      11.71652     13.85580     10.58906        -0.189667     -1.293459      0.789446
O      11.78015      5.41204      2.43288         0.236214      2.405946     -1.457337
O      11.52479      5.81011     14.59696         3.165285     -0.961568     -0.288244
O      11.61129      5.96320      6.30683         1.224259      0.052532      1.143048
O      11.58739      5.81292     11.01879         1.187725      0.524692     -1.247603
O      11.70498      9.69284      2.29372         1.520922     -0.043131      0.586583
O      11.72050      9.84038     14.90293         1.091420     -0.036877     -0.674732
O      11.60327      9.58036      6.55009         0.182843      1.190048     -0.610749
O      11.73435      9.67375     10.63025         0.258621     -0.321059      0.278882
O       2.00867      3.89961      2.35718        -1.504553     -1.530730     -0.598269
O       1.94802      3.99074     14.94180         0.157463     -1.056600     -0.678189
O       2.09256      0.00555      2.54215        -0.308548      0.594499     -1.030349
O       1.98513      0.02300     14.67770         0.022958     -0.852851      0.400130
O      14.11498      3.81455      2.28685        -1.692742      1.305949     -0.196489
O      13.50612      3.69632     14.85243         0.638682      1.258606      0.877842
O      13.65479     15.58652      2.86423        -0.872702     -1.652423     -1.928493
O      14.14701     15.57612     15.04448        -1.630315      1.053795     -0.359587
O       2.13425      3.61085      6.63195        -0.899893      4.287923      0.299728
O       1.85557     15.53768      6.52565        -0.069444     -0.521813      0.913253
O      13.28574      3.85109      6.90863         2.687638      0.483461     -2.200217
O      14.00200     15.52499      6.69979        -0.900143      0.014598     -0.479499
O       2.06854      4.18678     10.60514         0.237405     -3.382997      0.779649
O       2.11943     15.49382     10.47936         0.200152     -0.389539      0.354966
O      13.73834      3.83957     10.95026        -0.698426     -0.914103     -2.060661
O      13.48901     15.54847     10.65893         1.169223     -0.659038      0.686645
O       2.09321      7.62101      2.40306         0.392426      5.392450      0.182608
O       1.99262      7.73754     14.61661        -0.347090      0.165400      0.747518
O      13.81748      7.73796      2.42009        -1.440360     -0.615252     -0.472456
O      13.55834      7.75876     15.10713         0.632802     -0.379254     -0.464373
O       1.99898      7.72024      6.50622        -0.527024      0.183211     -0.583745
O      13.54498      7.90412      6.66562         0.339946     -2.199794      0.133576
O       1.79527      7.88334     10.75128         0.124643      0.660356     -0.625659
O      13.78418      7.65832     10.82446        -0.815405      0.090626     -0.663922
O       1.90173     11.72821      2.67799         0.581932     -2.512938     -0.394534
O       2.14681     11.51919     14.88228        -0.264192      2.792120     -0.068436
O      13.83245     11.72097      2.49729        -0.678165      0.454053     -0.955394
O      13.76080     11.79652     14.92115         0.033658     -3.098896      0.379928
O       2.09365     11.63419      6.20164         0.160255     -0.425826     -0.247840
O      13.48154     11.62511      6.41245         0.042224      0.049770      1.099370
O       1.58987     11.72995     10.70803         1.541017     -0.549707     -0.305214
O      13.54044     11.56178     10.74279         0.236797      2.245294      0.515477
O       5.92889      3.85387      2.50401         0.603575     -1.757362     -0.033122
O       5.80492      3.98316     14.62561         0.023038     -1.572024      0.267624
O       5.80696     15.60519      2.45425         0.093989     -0.733195     -0.860974
O       6.03958     15.59759     14.79784        -0.436301      0.899841     -0.154105
O       5.82107      3.72631      6.48678        -0.568571      1.049548      0.020921
O       5.93203     15.60124      6.52427         0.769064     -1.715877      0.096582
O       5.61786      3.99356     10.79842         1.150382     -1.700700     -0.679658
O       5.79763     15.46488     10.85673        -0.530529      0.053962     -0.580970
O       5.78123      7.54809      2.29663         1.021804      3.560609      0.474254
O       6.06397      7.82179     15.13582        -0.481051     -0.071453     -0.962752
O       5.87362      7.75714      6.73912         0.262846      0.326722      0.079891
O       5.87591      7.88848     10.48785        -0.202842     -0.555019      0.383556
O       5.85299     11.60107      2.25456        -0.302560     -0.149400      0.346888
O       6.10347     11.57239     14.82328        -0.994544      0.244065      0.603780
O       5.52736     11.60015      6.50167         0.446220      1.946346     -0.501585
O       5.91628     11.63389     10.82189        -1.572113      1.029632     -1.429400
O       9.71487      3.86452      1.84940         0.267548     -0.658897      1.254591
O       9.75009      3.74333     15.39264         0.711179      0.708506     -1.361121
O       9.25783     15.34577      2.19165         1.780868      2.317606      0.539161
O       9.50912     15.52774     14.79994         1.144822      0.535149      0.983802
O       9.92623      3.90854      6.54638        -0.052727     -3.719316      0.226819
O       9.75181      0.23144      6.54053        -0.754234     -0.665796     -0.534088
O       9.59124      3.90428     10.74921        -0.085807     -0.164266      0.125301
O       9.86416      0.08401     11.16132        -1.860669     -1.698875     -1.104231
O       9.85904      7.64913      2.47712         0.018806      0.232721     -0.400839
O       9.86187      7.62108     14.93134        -1.223332      1.658991     -1.101670
O       9.55503      7.79502      6.51370        -0.169329      0.551711     -0.141998
O       9.58030      7.82469     10.88190         0.974978     -0.826339     -0.997525
O       9.80838     11.54643      2.34865        -0.018146      2.864870      0.104232
O       9.69167     11.68721     14.91619         1.592916     -0.427288     -0.757478
O       9.91852     11.81672      6.65718         0.257650     -0.893423     -0.402098
O       9.91073     11.81475     10.39487        -0.006165     -0.083545      0.661489
