  # total energy = -7842.99835139 
CRSYTAL
PRIMVEC
    15.6080000000000005    0.0000000000000000    0.0000000000000000
     0.0000000000000000   15.6080000000000005    0.0000000000000000
     0.0000000000000000    0.0000000000000000   16.6239999999999988
PRESSURE
1.96704 1.22463 -4.25136 -0.027209 0.396162 -0.056997
PRIMCOORD
320 1
Pb       4.15968      4.10102      4.27766        -0.067396     -0.189278     -0.112610
Pb       4.00592      4.02560      0.11220        -0.262432     -0.744690      0.571722
Pb       4.15658      0.15322      4.43122        -0.615923     -0.916835     -0.767098
Pb       3.73357     15.52296      0.26976         0.880386      0.252481     -0.379343
Pb       0.31162      4.02435      4.30973        -1.113044      0.824960      0.273798
Pb       0.04658      3.84040      0.27477        -0.067780     -0.367548     -0.714505
Pb      15.32720     15.56278      4.48604         1.468402     -0.609300     -0.442276
Pb       0.28702     15.52172      0.03650         0.236432     -0.482321     -0.103714
Pb       3.89302      3.67151      8.25181         0.037990     -0.167566      0.399574
Pb       3.82270      0.01033      8.59977         0.087740      0.187014     -0.741677
Pb      15.37604      3.98586      8.14431         1.085041     -0.537646      0.077894
Pb      15.09581     15.56075      7.89754         1.303427      0.567094      1.960012
Pb       3.94804      3.92190     12.37106        -0.656130     -0.106612     -0.160836
Pb       3.74981      0.19187     12.46241        -0.756227     -0.250908     -0.353704
Pb       0.12479      3.70156     12.74056         0.557030      0.003409     -0.867445
Pb      15.44241     15.46628     12.15993        -0.335829      0.521119     -0.271412
Pb       3.74132      8.04262      4.25785        -0.089078      0.358801     -0.449324
Pb       3.69007      8.06116      0.14267         0.215505     -0.096188     -0.539929
Pb       0.05196      7.79081      4.14841        -0.517828      0.702933      0.273756
Pb       0.18452      8.00907      0.07482        -0.539949      0.828897      0.150306
Pb       3.94090      7.86718      8.83019         1.020796      1.071176     -0.807898
Pb       0.05909      7.61410      8.60023        -0.432765     -0.155820     -0.456698
Pb       3.75783      7.55502     12.88856         0.881064      0.212622     -0.865494
Pb       0.18691      7.38226     12.82816         0.036006      0.240237     -0.982590
Pb       3.67064     12.00261      4.65787         1.096732     -0.324218     -0.514207
Pb       3.49552     11.89308      0.18348         0.158809      0.557472     -0.567734
Pb      15.57391     11.64162      4.67965        -0.331610     -0.615210     -1.944645
Pb      15.55453     11.88130     16.50988         0.633819     -0.260033     -0.165245
Pb       3.67916     11.65128      8.64845         1.455142     -1.138906     -0.414713
Pb      15.39833     11.28050      8.14582        -0.531552      1.079283      1.107053
Pb       3.83310     11.87228     12.66273         0.108503     -0.790407     -0.774324
Pb      15.31302     11.85446     12.42011         0.199043      0.074065     -0.464593
Pb       7.75667      4.12970      4.00490         0.045706     -0.785556     -0.104713
Pb       7.81339      3.72214     16.52892         0.198709      0.249632      0.437384
Pb       8.03458      0.00137      4.07833        -0.375952      0.591697     -0.476218
Pb       7.64079      0.04997     16.60984         0.461384     -0.728273      0.367833
Pb       7.70917      4.00598      8.45431         0.053642     -0.757652     -0.619055
Pb       7.72687      0.05487      8.32578         0.171955      1.196279      0.211395
Pb       7.98415      3.91070     12.58403         0.438010     -0.931036     -0.056874
Pb       7.77541     15.51461     12.89000         0.382350      0.473820     -0.697329
Pb       7.66156      7.73104      4.02208         0.248167      1.485233     -0.132169
Pb       7.65245      7.90733     16.62293         0.556762      0.536280      0.150365
Pb       7.86320      7.84075      8.34472         0.124220      0.607353     -0.490144
Pb       7.56877      7.73336     12.80762        -0.268170      0.384622     -0.445044
Pb       7.59567     11.94146      4.18560        -0.173598     -0.669893      0.183133
Pb       7.71789     11.54860     16.61964        -0.126358      0.618358      0.906138
Pb       7.60342     11.73589      8.40376        -0.448447     -0.844160     -0.567840
Pb       8.17637     11.83769     12.89185        -2.016655     -0.254198     -0.894927
Pb      11.89561      3.82255      3.99868        -0.530468      0.800535     -0.494249
Pb      12.03887      3.79326     16.61472        -0.497922     -0.610748      0.433875
Pb      11.97139     15.22843      4.29472        -1.372542      0.409810     -0.398746
Pb      12.34990     15.51754      0.43631        -1.363858      1.033021     -1.239018
Pb      11.63251      4.14312      8.52719        -0.366883     -1.262686     -0.918605
Pb      11.55063      0.25519      8.09561        -0.179990      0.224943      1.104336
Pb      11.78341      3.66534     12.73565        -0.971006     -0.409991     -0.473988
Pb      11.65568     15.28371     12.06757        -0.261395      1.135736     -0.062642
Pb      11.41627      7.51830      4.24846         0.016895      0.808497     -0.739909
Pb      12.13335      7.74120      0.05056        -0.933207      0.264781     -0.011550
Pb      11.89043      7.59517      8.74371        -0.970770      0.715097     -0.811728
Pb      11.56397      7.62693     12.63570         0.293612      0.458895     -0.195756
Pb      11.55008     11.55460      4.25109        -0.446672      0.063413     -0.293516
Pb      11.82637     11.57594     16.59840        -0.582415      0.129818      0.161905
Pb      11.40561     11.27221      8.23139         0.065515      0.629179      0.195061
Pb      11.41705     11.47236     12.16523         0.677813      0.846873     -0.765980
Ti       2.12551      1.96500      2.32469        -0.625860     -1.064225     -1.372408
Ti       1.88143      1.91923     14.70300        -0.177110     -1.195554     -1.118905
Ti       1.80276     13.77072      2.61877         0.680068      0.608993     -1.306059
Ti       1.94283     13.71046     14.09553        -1.751663      0.006388      0.067998
Ti      14.01837      2.03169      2.24745        -2.779949     -1.043893     -1.325379
Ti      13.58382      1.76098     14.31761         0.754153     -1.241271      0.909242
Ti      13.65501     13.49081      2.04139         1.887889     -0.185751      0.502043
Ti      13.44411     13.48518     14.47907         2.977884      2.987824     -0.523967
Ti       1.90215      2.08106      6.07472        -0.405529     -1.668182      3.035524
Ti       1.88458     13.72744      6.53591         0.608310      1.184131     -1.877678
Ti      13.50069      2.10820      6.01530         1.786270     -0.685995      1.132844
Ti      13.55146     13.40097      6.22452        -0.674463     -0.377837      2.144045
Ti       1.94467      1.97843     10.20447        -1.939598     -0.019779     -1.981569
Ti       1.87963     13.63540     10.28877        -1.023517     -0.114171     -0.057851
Ti      13.72962      2.02765     10.27857        -1.214655     -2.369196     -0.112471
Ti      13.41652     13.62151     10.14099         0.431461     -0.101031     -1.492244
Ti       2.04363      5.85100      2.12340         0.148721      1.204835      0.174822
Ti       2.01246      5.63396     14.80633        -0.085287     -0.191345     -1.037381
Ti      13.69805      5.82857      2.09347        -1.198321      1.324018      0.934509
Ti      13.68688      5.75813     14.45209        -0.993328     -0.764143     -0.216598
Ti       2.08898      5.94749      6.32800        -1.317079     -0.417087      1.379904
Ti      13.42651      5.79289      6.14861         0.895311      0.437658      0.223615
Ti       2.14077      5.83881     10.25892        -2.732473     -1.888246     -0.510968
Ti      13.75028      5.67690     10.46058        -0.465360      0.740303      1.303786
Ti       1.89924      9.94177      2.01063        -2.450194      0.421907      2.168385
Ti       1.87101      9.82713     14.42667         1.254613      1.443746      1.580318
Ti      13.63690      9.86764      2.17001         0.548719     -2.712479      1.515541
Ti      13.73420      9.65663     14.34190         0.101677      0.608813      1.093237
Ti       1.94857      9.67497      6.51356         0.190368      0.713705      0.673841
Ti      13.51943      9.51274      6.14339         0.511488      1.421329      0.265531
Ti       1.69090      9.75079     10.68930         2.690605      1.337902      0.140172
Ti      13.51174      9.65839     10.47355         0.738897      1.079743     -1.108541
Ti       5.92473      2.01827      1.93972         0.896190     -0.023697      1.228854
Ti       5.69229      1.83913     14.51891         2.461628     -1.016479      0.134572
Ti       5.77608     13.77188      2.14270        -0.601723     -1.057816      0.210352
Ti       5.85777     13.60519     14.64610         0.006611     -0.573309     -0.517140
Ti       5.84173      2.12620      6.14638         1.726920      0.215058      0.477852
Ti       5.94571     13.89935      6.36620        -1.680385     -2.720105      0.009081
Ti       5.88277      1.79196     10.57610         0.855949      0.219876     -1.813657
Ti       5.85203     13.57652     10.43405        -0.079712     -0.216485     -0.809792
Ti       5.73665      6.03578      1.98959         0.190272      0.046415     -0.058328
Ti       5.81011      5.54794     14.63174         0.494647      2.413976     -0.892344
Ti       5.77195      6.03899      6.21348         0.205161      0.312082      0.388242
Ti       6.12472      5.77297     10.54501        -0.946788      1.254847     -0.382412
Ti       5.59116      9.91621      1.96969         1.651499      1.050290      1.872844
Ti       5.80252      9.71121     14.47813        -1.267399      0.749580     -0.462720
Ti       5.77579      9.85581      6.04429         0.407669      0.909402      0.366063
Ti       5.77184      9.69745     10.55757        -0.844892      0.046198     -1.094690
Ti       9.91256      2.08556      2.25406        -0.069744     -0.562111     -1.728345
Ti       9.71144      1.95125     14.93499         0.677232     -1.443986     -0.971552
Ti       9.73946     13.65929      2.11810        -0.561124     -0.472636     -1.032901
Ti       9.79043     13.68853     14.87332         0.111702      2.332846      0.710794
Ti       9.68558      2.29057      6.11130        -1.398337     -0.584619      2.282168
Ti       9.71259     13.74118      6.22208         0.454193     -1.121947      0.299283
Ti       9.69791      1.83523     10.43314         1.191201     -0.423243     -1.087904
Ti       9.49580     13.59202     10.06499         5.499963     -0.205427     -0.888606
Ti       9.49447      5.90858      1.79049         1.775453     -0.241885      1.227925
Ti       9.77975      5.89870     14.48036         0.460013      0.108624      0.456693
Ti       9.51868      5.95705      6.19546         1.488984      1.446446      0.411059
Ti       9.90064      5.70119     10.50027        -1.976232      2.131617     -0.497353
Ti       9.72580      9.68603      1.96213        -0.663395      0.879046      0.473036
Ti       9.88432      9.93255     14.62264         0.264545     -1.752655      0.746508
Ti       9.52315      9.84071      5.94861         0.230105     -1.479424      1.547161
Ti       9.51356      9.51419     10.40198         1.092699      0.698988     -1.004390
O       1.93977      1.63906      0.09214        -0.458847      0.131021      0.312951
O       2.12811      1.97965     12.82115        -0.197823      0.870283     -1.061960
O       2.21864     13.97125      0.37690        -1.906673     -1.173070     -0.119561
O       2.24704     13.80792     12.18196        -1.018746     -0.365057      1.982431
O      13.89896      2.13311      0.20130        -0.448205     -0.218576      0.685134
O      13.75540      1.78574     12.51601         0.091551      0.521675      0.293873
O      13.56642     13.43336      0.00794         0.641338      0.629373      2.688336
O      13.61773     13.91991     12.58912        -0.206868     -1.189428      0.157239
O       1.88174      2.13729      4.19952         0.799526     -0.256367     -1.118963
O       1.75363     13.98257      4.45803         0.297011     -1.857800     -1.215396
O      13.86559      1.89876      4.19644        -0.996735      0.693190      0.065977
O      13.60111     13.54335      4.36719        -0.091708      0.445467     -1.594368
O       1.91543      1.95374      8.25162         1.399585      0.304327      1.198822
O       2.07078     13.29669      8.24761        -0.565422      0.620392      1.555570
O      13.64480      1.96361      8.48187         0.030450      0.351410     -2.267252
O      13.48300     13.67923      8.26589         0.150041     -0.026007      0.401521
O       1.98703      6.01460     16.60019        -0.196803     -0.176869      1.112706
O       1.96051      5.50444     12.70659         0.033017      0.888043     -0.356660
O      13.58378      5.49909      0.01533         1.052819      1.961075      1.199199
O      13.69663      5.90387     12.41594         0.135991     -0.525829      0.728665
O       2.40453      5.87419      4.24915        -0.563443      0.069569     -0.280862
O      13.66145      5.96048      4.22757        -0.479288     -0.893513      0.100256
O       1.84351      5.83695      8.33404        -0.006209      0.055953      0.469339
O      13.68348      5.52456      8.19878        -0.717698      1.555360      0.618335
O       1.74438     10.25463     16.40980         0.957288     -1.588957      1.720747
O       1.75461      9.86380     12.60218        -0.392830     -1.004357     -1.768584
O      13.57091      9.58598     16.41571        -0.301055      0.366176      1.087450
O      13.95269      9.95754     12.33325        -0.763248     -1.354234      2.110159
O       1.80278      9.48160      3.94943        -0.164328      1.062885      0.669252
O      13.83653      9.58957      4.19937        -0.462731      0.637794     -1.327324
O       1.82586     10.13099      8.38550         0.373827     -1.639147     -1.375628
O      13.51607      9.80173      8.34411         0.344633     -0.517529      0.168916
O       5.83120      1.72223      0.15666         0.444123      0.945992     -0.680630
O       5.86407      1.64692     12.64493         0.027249      1.243081     -0.746587
O       5.78868     13.93534      0.33143        -0.561953     -0.520532     -1.019170
O       6.21046     13.70070     12.79996        -0.482164     -1.145415      0.679554
O       5.95919      2.04134      4.29533        -0.458695      0.035780      0.098772
O       5.86099     13.62378      4.42712         0.568686      0.175348     -0.215325
O       5.77124      1.85336      8.47277        -0.299567     -0.418009      0.476568
O       6.12649     13.78249      8.40655        -1.247080      0.220163      0.529369
O       5.92874      5.69907     16.48260        -0.421681      0.670470      1.031209
O       5.47281      5.79593     12.51024         1.049598     -0.882361     -0.517313
O       5.75047      6.01601      4.32075        -0.615600     -1.027919     -0.221753
O       6.31651      6.14004      8.69972        -0.924817     -1.420375     -0.612978
O       5.77798      9.54901      0.21156        -0.212088      0.028797     -1.010677
O       5.92459      9.75767     12.67033        -0.286250      0.019391     -0.261098
O       5.90502      9.96355      4.15796        -1.079354     -0.296881      1.014284
O       5.81210      9.84695      8.72496         0.444531     -0.710908     -0.223544
O       9.96168      2.19108      0.07605        -1.003787     -0.466713     -0.277600
O       9.55568      1.97654     12.17099        -0.238803     -0.172179      1.497818
O       9.79701     13.42978      0.13143         0.510238     -0.052290      2.408303
O       9.69057     13.52648     12.97330        -0.104926      0.745815     -0.771743
O       9.66739      2.23459      4.10427         0.417287     -0.357988      1.741740
O       9.82726     13.74400      4.26136        -0.270873     -0.431765     -0.827427
O       9.85241      1.90466      8.28120         0.178572      0.620748     -1.194570
O       9.71585     13.24734      8.28135        -0.107491      1.771757     -1.653221
O       9.35273      5.71933      0.06039         0.554988      0.082924     -1.304938
O       9.89882      6.09253     12.59304        -1.072999     -0.982980     -0.113288
O       9.53228      5.96638      4.23756         0.317347     -0.555080     -0.224819
O       9.84338      5.88477      8.38274        -0.604893     -0.186745      0.920678
O       9.72100      9.78061      0.00010         0.465947      0.053664     -0.512268
O       9.78263      9.80613     12.48267        -0.320834     -0.109663      0.550811
O       9.66875      9.42356      4.20561         0.008843      0.577832     -0.994104
O       9.58057      9.80467      8.32558         0.496575     -0.529093      0.955858
O       3.99261      1.68417      2.04918        -2.079641      0.146598      1.186420
O       3.97817      1.86609     14.65766        -1.615612     -0.336211      0.347717
O       3.75775     14.08411      2.59299         0.832134     -0.626517     -0.653241
O       3.78402     13.51340     14.41399         3.253629      1.462465      0.885463
O       0.09670      2.35206      2.23140         2.500305     -0.206016     -0.209535
O       0.03640      2.10161     14.45400        -0.363820      0.074951      0.807717
O      15.59193     13.16658      2.29247        -2.357146      1.641059     -0.353525
O       0.02410     13.54936     14.51444         1.321835      0.225568      0.045021
O       3.98771      2.27157      6.09287        -1.071936     -0.184526      0.522319
O       3.93825     13.52818      6.33974        -0.909706      0.022988     -0.072369
O       0.03235      1.78340      6.26404        -0.095377      0.707193     -0.600861
O      15.46876     13.74508      6.34453         0.514757     -0.068309      0.010481
O       3.84224      1.81271     10.42847         2.043960      0.063437      0.632381
O       3.93917     13.57650     10.16736         1.635963      0.412923      0.389325
O       0.05519      1.82095     10.24339         0.516138      0.065349      1.410794
O       0.08861     13.78885      9.88852        -0.285634     -0.449549      1.890636
O       3.97777      5.81184      1.81074        -2.083201      0.219281     -0.140454
O       3.87593      5.68681     14.56918        -0.272451     -0.053959      0.587844
O       0.23232      5.70467      2.26781        -0.916536      0.000103     -0.483470
O      15.59533      5.73079     14.44892         0.420946      0.063073      0.659702
O       4.05741      5.40662      6.70605        -0.528193      1.133914     -1.248720
O       0.18544      5.87156      6.28026         0.826965      0.368462     -0.593288
O       3.83128      5.91325     10.04629         2.101297     -1.215704      1.162036
O      15.46914      5.75684     10.27211         2.387335      0.688146     -0.082623
O       3.68355     10.02792      2.13839         2.910273     -1.155699     -0.922372
O       3.81579      9.85355     14.75796         0.996968     -0.855358     -0.608870
O      15.51194      9.84207      1.81950        -0.637871     -0.069488     -0.052938
O      15.59029      9.78809     14.74973        -1.240529     -0.480861     -1.063791
O       3.80952     10.01051      6.50334        -0.225521     -0.032948     -1.307120
O      15.52944      9.41446      6.15619         2.252900      1.240487      0.966630
O       3.83378      9.79842     10.42507        -0.469921     -0.104243      0.645367
O       0.03730     10.05736     10.20160        -1.586346     -1.185565      0.556438
O       7.75677      2.03157      2.21096         0.572791      0.335658     -0.529114
O       7.75859      1.84331     14.66126         1.442298      0.969378      0.491323
O       7.88573     13.11296      2.24038         0.036216      2.011336     -0.307176
O       7.79713     13.38939     15.26031        -0.275976      0.580544     -1.872958
O       7.77057      2.06932      6.34955         1.834888     -1.300572     -0.291684
O       7.79163     13.61832      6.38796         0.719236      0.880016     -0.676132
O       7.81982      1.92927     10.09983        -1.181385     -0.149830      0.825342
O       7.84646     13.73029     10.17614        -3.729949      0.157038      1.241487
O       7.53123      5.79676      2.14267         2.519521      0.222744      0.106279
O       7.74525      5.90677     14.52186         0.409657     -0.204305     -0.850566
O       7.73101      6.24763      6.20014        -0.824085     -0.184705      0.753399
O       7.97558      5.79172     10.74024        -1.811843      0.350930      0.407972
O       7.70858      9.49211      2.16922        -0.023260      1.031713     -0.755449
O       7.77810      9.62658     14.67189         1.121133     -0.519994      0.158468
O       7.70596      9.46567      6.24103        -0.339289      0.172660     -0.056972
O       7.73355      9.43918     10.44561         1.184346     -0.081157      0.681948
O      11.80025      2.13293      2.02545        -0.525001     -0.532570      1.075783
O      11.49039      1.67290     14.17167         1.841440      1.241593      0.876685
O      11.74198     13.84984      2.14868         0.694711     -0.423362      0.236189
O      11.76270     13.70406     14.95300        -1.343551     -0.010809     -0.737507
O      11.74827      2.35622      6.13444        -1.873482     -0.393492     -0.259136
O      11.68048     13.39444      6.25941        -0.376330      0.581795     -0.392943
O      11.84711      1.89333     10.37584        -1.979967      0.796323      0.704788
O      11.63444     13.68423     10.27108         0.133664     -0.202676      0.954671
O      11.64535      5.96786      2.07277         1.108915     -0.460384      0.000257
O      11.70217      5.69039     14.31130         0.675342      0.144394      1.006790
O      11.66036      5.41657      6.33180         0.749034      1.364362     -0.978586
O      11.70186      5.78509     10.40420         2.187775     -0.021632     -0.075606
O      11.65623      9.54113      2.28204         1.126770     -0.827913     -0.835924
O      11.79298      9.97102     14.43382        -0.157740     -0.541054     -0.136072
O      11.73240      9.97962      6.01121        -0.744320     -0.660587      0.329917
O      11.69212      9.60690     10.38503         0.024170      0.663898      0.508472
O       2.19618      3.93376      1.89835         0.128575     -0.895481      0.535026
O       2.06106      3.78258     15.02890        -0.407113      1.283799     -0.186536
O       1.37292      0.04891      2.42484         0.932569      0.951696     -0.520815
O       1.83980     15.53278     14.30142         0.389538      1.085421      1.445626
O      13.74868      3.88819      2.37780        -0.487807      1.682440     -0.160000
O      13.57696      3.91117     14.63548        -0.148367     -1.456285     -1.119890
O      13.87222     15.57205      2.32910        -0.230593     -0.463701     -0.920968
O      13.95778      0.03435     14.77796        -1.222579      0.499885     -0.167478
O       1.92397      3.87697      6.24446        -0.184201      0.529991     -0.138986
O       1.96253     15.56059      6.37051         0.637531      0.525865      0.541679
O      13.86357      3.91368      6.15587         0.599477      0.304182     -0.453636
O      13.39550      0.19890      6.32837         0.065129     -0.898743     -0.718018
O       1.98550      3.90270     10.38236         0.370053     -0.385433      0.538528
O       2.07845     15.60193     10.41051         0.092264     -0.013594     -0.228845
O      13.74244      3.85687     10.37005        -0.305344      0.760804      0.730599
O      13.45889      0.02936     10.48344         1.328788     -1.814686      0.150067
O       2.10471      7.92312      2.09573        -0.395836     -2.049586     -1.761477
O       1.91918      7.94383     14.63213        -0.145005     -1.692573     -0.023180
O      14.03063      7.70741      2.29566        -0.907911     -1.003474     -1.841649
O      13.57376      7.72272     14.50475         0.467266      0.564794     -0.155962
O       2.40816      7.79145      6.59863        -0.987172     -0.181604     -1.225543
O      13.66602      7.79336      6.34183        -1.292729     -3.156501      0.274194
O       1.90940      7.72815     10.43345        -0.879659      1.206677      0.175143
O      13.74329      7.79735     10.39279        -0.087517     -0.383569     -0.457254
O       1.89679     11.77043      2.00466         0.687541      0.843465      0.739371
O       2.15145     11.82694     14.26932        -1.584091     -1.124843      0.116270
O      13.31696     11.62670      2.12475         0.197904      0.874431     -0.075649
O      13.91562     11.78131     14.54401        -1.256165     -2.381318     -0.447250
O       1.75292     11.61404      5.94979         0.437637      0.221121      1.409484
O      13.83535     11.61106      6.31538        -0.285033     -0.175478     -0.553669
O       1.98588     11.71262     10.77320         0.023390      0.157012     -0.874206
O      13.41332     11.68592     10.54120         0.762868      1.118456     -0.243518
O       5.67540      3.97755      2.06877         0.205324     -1.346898      0.274325
O       5.96062      3.69860     14.58811        -0.297944      1.140177     -0.094749
O       6.17900     15.51787      2.33597        -0.020982      1.726692      0.697167
O       6.25107     15.46362     14.72654        -1.354297      0.207992     -0.010310
O       6.22256      4.02090      6.38040        -0.873068      0.055406     -0.074299
O       5.51903      0.04029      6.28580         1.376169      1.245839      0.561338
O       5.86562      3.82622     10.52573         0.042180      0.088502      0.416303
O       6.06575     15.44949     10.88930        -0.825587      1.391327     -1.404551
O       5.54715      7.85972      2.26610         0.070907     -0.328858     -0.517745
O       5.59343      7.62710     14.20562         1.172822      0.852652      1.898573
O       5.38318      7.89781      6.24839         0.750235     -0.805665      0.291177
O       5.64033      7.73869     10.60384         0.569733      0.143914      0.858447
O       5.57857     11.86512      2.00093         0.302507     -1.938066      0.104755
O       5.97790     11.55445     14.74541        -0.371848      1.302408      0.255741
O       5.92413     11.65345      6.53421         0.213594     -0.537891     -0.868989
O       6.17225     11.74805     10.58995        -0.618228      0.494083      0.225758
O       9.68772      3.88475      2.03460        -0.292385      1.230691      0.545840
O       9.75173      3.85289     14.43969        -0.435960      0.526080     -0.097679
O       9.64647     15.57668      2.21673        -0.172451     -0.039274      0.062318
O       9.61192      0.00648     14.99028        -0.145399     -0.930415     -0.553883
O       9.52118      4.07581      6.44822        -0.344550     -1.770845     -0.769591
O       9.88291     15.55422      6.16722         0.011500      1.091289      0.386566
O       9.76108      3.96482     10.64070         0.130154     -1.664478     -0.579188
O       9.87002     15.50736     10.22522        -0.540558      0.665153      0.243129
O       9.51718      7.77409      1.88778         0.358915     -1.761148      0.081413
O      10.13109      7.72500     14.77431        -0.705540      0.433607     -0.309910
O       9.93564      7.78084      6.19056         0.262478     -0.244002      0.677406
O      10.05119      7.72081     10.45933        -1.151192      1.188536     -0.164044
O       9.93273     11.49276      2.24033         0.017673      0.940894      0.063822
O       9.96968     11.76954     14.69439        -0.879874     -2.391161     -0.012448
O       9.64248     11.68842      6.04275        -0.113454     -0.817073     -0.378560
O       9.81939     11.75223     10.21801        -0.189105     -2.080256      2.513351
