  # total energy = -7842.03696691 
CRSYTAL
PRIMVEC
    15.6080000000000005    0.0000000000000000    0.0000000000000000
     0.0000000000000000   15.6080000000000005    0.0000000000000000
     0.0000000000000000    0.0000000000000000   16.6239999999999988
PRESSURE
1.65693 2.41514 -1.24789 0.270824 0.30907 0.344849
PRIMCOORD
320 1
Pb       3.44658      3.60636      4.18193         0.791935      1.133674     -1.644452
Pb       3.70403      3.89261      0.06279         0.304571     -0.364440      0.540800
Pb       3.57774     15.46729      3.96316         1.307990      0.273234      0.532080
Pb       3.99869      0.00662     16.45676         0.192829      0.400951     -0.167198
Pb      15.30517      3.90211      4.09298        -0.204390     -0.422335     -0.376244
Pb       0.11857      3.88931     16.31401        -0.934642     -0.298527      0.341955
Pb       0.19212     15.45793      4.06853        -1.572962      0.628806      0.669556
Pb      15.40572     15.49878      0.11930         0.220970      1.649147     -0.504187
Pb       3.90427      4.07080      8.28891         0.134341      0.456398      0.996270
Pb       4.01136     15.56104      8.00732         0.049206     -0.497897      0.107055
Pb       0.23103      3.76798      8.65111        -1.347656      0.100866     -1.073296
Pb       0.37228      0.09542      8.77012        -1.538400     -0.162851     -1.240732
Pb       4.02242      3.90642     12.69375        -1.238062     -0.864997     -0.858702
Pb       3.83929     15.40798     12.66764         0.479234      0.259226      0.341415
Pb      15.50933      4.08716     12.35583        -0.192931     -0.825012      0.834310
Pb      15.51352      0.03516     12.95046         0.080802     -0.243378     -0.698599
Pb       3.91092      7.33823      4.24949        -0.842585      0.594775     -1.614461
Pb       3.88491      7.65354     16.59650        -0.020317      0.180267      0.223662
Pb      15.47663      7.62997      4.56247        -0.778509      0.585973     -1.230534
Pb      15.36571      7.79199      0.09059         0.012594     -0.577353      0.041912
Pb       3.81048      7.65525      8.02035        -0.302418      0.341265      0.493529
Pb      15.52048      7.80772      8.38092         0.181150      0.052993     -0.681992
Pb       4.09975      7.89529     12.13666        -0.365271     -0.482179      0.185013
Pb      15.36233      7.96178     12.54769         0.121457     -0.012362      0.025918
Pb       4.18235     11.52072      3.89593        -0.984975     -0.644909      0.254664
Pb       4.14069     11.41666     16.35381        -0.996989      0.200239      1.181954
Pb      15.43070     11.92656      4.06572         0.167146     -0.897041      0.088527
Pb       0.00567     11.57574      0.19905         1.461192     -0.377239     -0.435289
Pb       4.11521     11.53807      8.11776        -1.039938      0.308712      0.030716
Pb       0.11034     11.73155      8.79538        -0.500325      0.371270     -0.832622
Pb       3.84579     11.45073     12.31836         0.801472      0.314706      0.388221
Pb       0.05113     11.66587     12.63477        -0.371648      0.178926     -0.440147
Pb       7.56342      3.77782      4.36721         1.321825      0.709312     -0.647734
Pb       7.76606      4.11680      0.23072         0.277461     -1.832470     -0.218346
Pb       7.42430     15.52496      4.31393         0.263866      0.540798      0.598936
Pb       7.83941     15.58224      0.20775        -0.843468      0.382312     -1.217431
Pb       8.08880      3.79595      8.61691        -0.350943     -0.305468     -1.268461
Pb       7.74081      0.03286      8.27803         0.298769      0.020452     -0.749333
Pb       7.67131      3.67717     12.65888         1.096557      0.836669     -1.130900
Pb       7.83745      0.12400     12.31663        -2.242309     -1.010250      0.087754
Pb       8.01656      7.80769      4.24229        -0.156048     -0.294172      0.166292
Pb       7.85121      7.56708     16.56209        -0.449818      1.266630     -0.249102
Pb       7.71315      7.67648      8.15944         0.295674      0.013524      0.094807
Pb       7.92955      7.63515     12.22849        -0.253403      1.019918     -0.589053
Pb       7.97936     11.56168      4.29022        -1.190294      1.207547      0.617900
Pb       7.88495     11.67841      0.05314         0.208665     -0.337024     -0.826896
Pb       8.22482     11.71269      8.47982        -0.760481      0.196628     -0.112599
Pb       7.32050     11.41874     12.34101         0.671450      0.571212     -0.211192
Pb      11.55953      3.83217      4.35260         0.571548      0.443702     -0.271767
Pb      11.51852      3.82476      0.14974         0.861855      0.736017     -0.071126
Pb      11.53343      0.19412      4.03961         0.234062     -0.077797      0.891041
Pb      11.36874     15.57544     16.48095         0.399158     -0.173184      0.646480
Pb      11.60939      3.48999      8.29574         1.026941      1.296700     -0.666154
Pb      11.74136     15.33442      8.58712        -0.033240      0.835670     -0.297721
Pb      11.68867      4.17089     12.43781         0.767490     -0.201626     -0.257129
Pb      11.87019      0.07231     12.92991         0.105229     -0.737920     -0.572928
Pb      11.85937      8.07400      3.96518        -0.127907     -0.495656      1.062573
Pb      11.28322      7.95810     16.59797         0.689786      0.129506     -0.021944
Pb      11.43171      7.79769      8.06626         1.007015     -0.881139      1.057687
Pb      11.67417      7.97659     12.44128        -0.189240      0.249293     -0.011874
Pb      11.63335     12.18002      4.29859         0.349803     -0.416169      0.644175
Pb      11.50282     11.91811      0.18865        -1.280170     -0.664334     -0.157092
Pb      11.96714     12.01646      8.59636        -0.346823     -0.951187     -0.112155
Pb      12.11151     12.05712     12.82404        -1.443722     -1.173494     -1.791750
Ti       1.69452      1.80358      2.20658         0.451820      2.128590     -1.794319
Ti       1.93789      1.83325     14.58042         2.087285      0.353691     -0.292332
Ti       1.99665     13.42358      2.00599        -0.513045     -0.454922      2.798197
Ti       1.93706     13.60112     14.58238         0.925732     -0.133668     -0.730417
Ti      13.47248      2.02952      2.14461         0.696896      0.512695     -1.142371
Ti      13.62270      2.08057     14.65030         0.277815      0.016696      1.408086
Ti      13.57563     13.72544      2.12653        -0.215940      0.797949      1.598778
Ti      13.66733     13.41684     14.96772        -1.099234      3.650678     -1.602667
Ti       2.08392      2.00125      6.61265        -4.535355     -1.590385     -0.499406
Ti       1.83916     13.55479      6.34446         0.784176     -0.225046      1.561395
Ti      13.79738      1.98965      6.07443         0.523496     -1.826123      0.152654
Ti      13.69066     13.70067      6.35071        -1.019523      1.376983     -0.049084
Ti       2.05225      1.86550     10.64003         0.525130      2.546305      0.897652
Ti       2.24100     13.72646     10.33565        -1.354939     -0.054089      0.573107
Ti      13.58925      2.11215     10.44070         0.882376     -1.510028      0.286554
Ti      13.96435     13.81779     10.57505        -1.560386     -1.481497      0.104907
Ti       1.69611      5.74546      1.92900         2.964366     -0.397817      1.068317
Ti       2.01794      5.75807     14.45170        -0.307191     -0.194226      0.506224
Ti      13.55326      5.96471      2.09050        -0.114027     -1.180274      0.222632
Ti      13.40479      5.82746     14.69625         1.550266     -0.199852     -0.063521
Ti       1.77674      5.72527      6.21392         0.504796      1.080069      1.690281
Ti      13.66446      5.85683      6.31393        -2.584162     -1.145839     -0.656412
Ti       1.89861      5.67585     10.62285         1.503942      0.733832      0.035333
Ti      13.61035      5.84632     10.19628        -0.534567     -0.094457      1.065099
Ti       1.78885      9.51170      2.04949         2.180753      1.374140      0.036561
Ti       1.99218      9.53356     14.68029         0.815251     -0.018779     -0.553065
Ti      13.53511      9.85241      1.99688        -0.232370     -0.051741      0.464302
Ti      13.68229      9.79453     14.73660        -1.436454     -2.005087     -1.417986
Ti       1.68088      9.76474      6.10632         3.068035      0.579629      3.195363
Ti      13.55370      9.79572      6.40908        -0.578442      0.647226     -0.365512
Ti       1.81034      9.69051     10.39667         1.185073     -1.141774      4.067018
Ti      13.55014      9.61905     10.34218        -0.914718      2.317187     -0.679652
Ti       5.69551      2.04885      2.12209        -0.672011     -0.164260     -1.610309
Ti       6.05816      1.84697     14.74900         0.142824     -2.125717      0.747747
Ti       5.83636     13.50007      2.06398         0.264773      0.458655     -0.803141
Ti       5.79841     13.51722     14.58142         2.242872      2.542221      0.965200
Ti       5.86347      2.17460      6.36430         1.126028     -3.460628     -0.200728
Ti       5.71696     13.59317      6.25025         0.989905      1.226943     -0.418425
Ti       5.84026      2.03374     10.18317        -0.267695     -1.769252     -0.466388
Ti       5.85780     13.84402     10.26730         0.227602     -0.973657      2.049352
Ti       5.84850      5.92361      2.09965        -1.214520     -0.948850      0.459022
Ti       5.92601      5.63515     14.38058        -1.417727      1.989293      1.262801
Ti       5.86566      5.79841      6.16187         0.033287     -0.311837     -1.509076
Ti       6.07228      5.63338     10.43466        -1.824537      1.224609     -0.174795
Ti       6.04185      9.59295      2.06625        -3.970880      0.440964     -1.338462
Ti       5.80464      9.53295     14.51413         1.380745     -0.137829      0.539153
Ti       5.72548      9.58059      6.15320         0.323542      2.281304      0.521016
Ti       5.83562      9.68295     10.04297         1.213213      0.328748      1.008445
Ti       9.50588      2.19586      2.32271         0.791940     -0.304012     -0.521358
Ti       9.83878      2.11484     14.37190        -1.691561     -0.688509      2.479431
Ti       9.53764     13.86629      2.35449         1.446347     -0.602592     -0.794057
Ti       9.47113     13.56866     14.42878         1.567041      0.236823      2.166710
Ti       9.78063      1.83689      6.43042        -1.041163      0.289237     -0.571425
Ti       9.69895     13.52817      6.48608         0.548955      1.706681     -0.881577
Ti       9.80885      1.89251     10.59876        -0.016193     -0.183853     -0.601716
Ti       9.67584     13.57855     10.72550         1.427021     -1.038086     -0.651699
Ti       9.78064      5.97347      2.18807        -0.084882     -0.363919      0.500443
Ti       9.66651      5.96094     14.37931         1.484057     -0.943326      2.373166
Ti       9.76436      5.77053      6.06137         1.098940      0.193509      1.847621
Ti       9.94620      5.80056     10.22382        -1.362391      0.415128      0.494743
Ti       9.66409      9.88751      2.40398         1.163700     -0.498356     -1.936065
Ti       9.66907      9.84607     14.48546         0.014440     -0.100170     -0.895531
Ti       9.70536      9.75090      6.31759         2.019448     -0.905084      0.099235
Ti       9.82589      9.73931     10.38730         0.208674      1.000418      0.887276
O       2.09576      2.01227      0.36056        -0.804392     -0.631143      0.190592
O       2.12033      1.77338     12.71632        -1.048701     -0.107652     -0.093867
O       2.05912     13.55077      0.34288        -0.221760     -0.066752     -2.234919
O       1.94005     13.86306     12.63655        -0.199829     -0.152144      2.753808
O      13.81254      2.10039      0.22024        -1.174523     -0.625390      0.627039
O      13.78631      2.24444     12.90076         0.404968     -1.066061     -0.679265
O      13.16862     13.55080      0.24261         1.406522      0.721747     -0.072653
O      13.78491     13.54807     12.82049         0.774925      0.457328     -0.640243
O       1.92784      1.90432      4.26858        -0.615342     -0.660400      0.615684
O       1.77964     13.69089      4.54883        -0.011390     -0.047482     -0.608987
O      13.83076      1.83631      4.12180        -0.746296      0.041143      2.637531
O      13.74244     13.54462      4.34825         0.007480      0.788397      0.194130
O       1.77638      1.99835      8.64937         1.235881      0.143102     -0.669048
O       2.30799     13.60382      8.50610        -0.751626      0.743809      1.100783
O      13.66109      2.00419      8.65849        -0.586340      0.353648     -0.010881
O      13.47671     13.77973      8.52736         1.065373     -0.408179      1.003156
O       1.92759      5.80760      0.10257        -0.922658     -0.044439      0.153170
O       1.97626      5.49994     12.64239         0.393921      1.963482      0.667091
O      13.63363      5.78482      0.23505         1.354395      1.023715      1.053296
O      13.22522      6.09044     12.77329         0.573042     -0.939176      1.876353
O       1.94943      6.06975      4.50706        -0.856590     -0.951463      0.172491
O      13.45484      5.97406      4.28498         0.510757      0.428054      2.284943
O       2.03001      5.46472      8.88433         0.113318      0.605022     -1.727679
O      13.74590      5.76018      8.47940        -1.030134      0.136124     -1.023799
O       2.10071      9.93419     16.54666        -1.072901     -1.149095      3.975387
O       2.09045      9.55200     12.85170        -0.250539      1.245689     -1.056117
O      13.49947      9.82567      0.17862         0.651422      0.108408     -0.825572
O      13.89088     10.00740     12.76340        -0.006740     -1.512385      0.826940
O       1.62221      9.53759      4.41655         0.109813      0.147088     -1.884659
O      13.77860      9.49615      4.58270        -0.364455      1.202463     -0.332517
O       1.86846      9.87308      8.76057         0.459222     -0.082671     -2.681677
O      13.40703      9.82712      8.50741         1.588079     -0.326259      1.198113
O       5.73022      2.17690      0.16189        -0.174443     -0.102612      1.055858
O       6.38823      1.96282     12.87012        -1.913842     -1.347732      0.310659
O       5.75804     13.61124      0.19633         0.343583     -0.530759      2.737521
O       6.14506     13.84269     12.92789        -0.321406      0.078647     -2.676397
O       6.14317      2.06588      4.52342        -1.536628     -0.415240     -1.121799
O       5.91944     13.57764      4.43752        -0.173803      0.120037     -0.944560
O       5.86837      2.12422      8.32594        -0.759728     -0.796128      2.441734
O       5.78786     13.84395      8.53292        -0.203788     -0.250494     -0.643031
O       5.51090      6.09101      0.26219         2.280337     -1.173336      0.269508
O       5.92941      5.56429     12.61998        -0.349165      0.405495     -1.274368
O       5.57458      5.71704      4.32158         0.637572      0.206966      1.250070
O       5.98567      5.92170      8.66486         0.574100     -0.130520     -2.109680
O       5.86822      9.61496      0.17051         1.005239      0.371468      0.769333
O       5.54061      9.62978     12.76078         1.254300      0.967605     -0.771667
O       6.00596     10.01721      4.39144        -1.009289     -0.737047      0.592002
O       6.01431      9.67345      8.18350        -0.424682     -0.252597      1.277064
O       9.75584      2.42012      0.24229        -0.737586     -1.005856      1.511059
O       9.47902      1.56593     12.64155         1.912275      2.712722      0.137799
O       9.90829     13.60360      0.35118        -0.323050      0.723200      1.251422
O       9.36201     13.44834     12.66986         0.863524      0.405218     -0.990451
O       9.46499      2.03110      4.36683         0.516849     -0.131575     -0.249620
O       9.63850     13.66740      4.59013         0.105435      0.053444     -1.538894
O       9.93377      1.96416      8.43503        -1.031423     -0.210989      0.768226
O       9.95530     13.68085      8.49109        -0.750339     -0.659458      0.495595
O       9.52562      5.81304      0.28978        -0.039403      0.838770      0.285846
O      10.05535      6.04853     12.71343        -0.020654     -0.402446     -1.626546
O       9.91305      5.96050      4.29304         0.011825      0.189235      0.163565
O       9.68075      6.10550      8.48882        -0.495322     -0.659286      0.044521
O       9.55672      9.54376      0.39137         0.011047      0.590601      0.656223
O       9.76858      9.74265     12.71502        -0.485508      0.366164      0.329363
O       9.85399      9.75165      4.43144        -0.356851      0.607924     -0.790726
O       9.97932      9.79193      8.57295        -1.663260     -0.318289     -0.251944
O       3.78460      1.99080      2.41078         0.867541      0.285717      0.517398
O       3.85617      1.72085     14.60121         1.540288      0.111373      0.843273
O       3.87227     13.40385      2.54566         0.695090      0.692605     -0.879316
O       4.02200     13.83235     14.63621        -3.720979      0.131272      0.220059
O      15.39815      2.06482      2.17815         3.423906     -0.147695      0.395483
O       0.10412      1.69041     14.85003        -1.722496      0.910455     -0.026223
O      15.53721     13.56202      2.26023        -0.352561      0.661018     -0.417827
O      15.49424     13.57240     14.84983         0.763472      0.620819      0.625979
O       3.79269      2.29092      6.33335         1.414744     -0.989835      0.423674
O       3.88038     13.81774      6.41753        -0.420764     -0.315743     -0.050098
O       0.01398      2.09666      6.40651        -0.139633     -0.698497     -0.033941
O      15.56433     13.60476      6.67577         0.693823     -0.137929     -0.224205
O       3.95435      2.09823     10.39396        -0.040891     -0.629367      0.524239
O       3.97437     13.84782     10.79115         1.729821      0.795962     -0.071756
O      15.50072      2.16184     10.57638         1.428998     -0.291622      0.499331
O       0.17399     13.74124     10.49744         0.181664     -0.002928     -0.559288
O       3.62482      5.64276      2.41537         1.135642      1.528169     -0.095925
O       3.92994      5.75467     14.87716         0.530088     -1.102302     -1.438843
O      15.54255      5.83356      2.58052        -0.430465      0.207969     -1.105737
O      15.41455      5.49597     14.45587         1.481648      0.795164      0.589690
O       3.78924      5.83001      6.43316         0.456391      0.173677      0.879801
O      15.46342      5.76195      6.57601         1.899972      0.293468     -0.692864
O       4.15150      5.61772     10.43233        -0.401147      0.404049      1.275872
O      15.51472      5.77090     10.25769         1.528394      0.090994      2.536464
O       3.91268      9.84092      2.10359        -0.477108      0.889614      1.031308
O       4.00848      9.77271     14.80509        -1.305154     -0.236850      0.279822
O      15.39589      9.66336      2.07123         2.527265      0.409104     -0.328916
O       0.21002      9.92723     14.80217        -2.814995     -0.752396      0.235593
O       3.83264      9.62027      6.51685         0.627361      0.196822     -0.409158
O       0.04670      9.73975      6.74034        -1.849446      0.648355      0.038800
O       4.09127      9.78182     10.61995        -2.269032     -0.767146     -0.528289
O      15.49172      9.55070     10.53686         1.611381      0.285664      0.270558
O       7.70277      2.11901      2.22677        -0.399981      0.159953     -0.184899
O       7.90384      1.65097     15.11346         0.776358      1.316572     -0.965963
O       7.72710     14.05755      2.49904        -1.730353     -1.750783     -0.970841
O       7.80659     13.54454     15.08232         0.468194      0.228690     -0.053836
O       7.70774      2.02375      6.73275         1.257900     -0.893147     -0.531549
O       7.84654     13.53750      6.59860         0.062106      0.799567      0.555768
O       7.76566      1.94819     10.64951         1.593839     -0.143948     -0.984860
O       7.76921     13.54981     10.55842         0.192167      0.563289     -0.816292
O       7.75956      6.21662      2.46391        -0.563941     -0.300071     -1.146562
O       7.81691      5.84017     14.34737         0.184666      0.525376      1.381620
O       7.70195      5.99547      5.99223         0.009977      0.226057      1.231264
O       8.04438      5.76489     10.62920        -0.918527      1.082156      0.573458
O       7.71649      9.79889      2.67177         2.717582     -1.164811     -0.958570
O       7.81454      9.84809     14.77335        -0.401590     -0.468945     -0.163967
O       7.94369      9.48853      6.42758        -1.681447      0.566392     -0.050706
O       7.70802      9.68691     10.71456         0.824735      0.756475     -0.819144
O      11.54551      2.08102      2.39934        -0.197205     -0.589209      0.013095
O      11.68071      2.24138     14.39866        -0.209478     -1.391379      0.693485
O      11.57561     13.83454      2.68303         0.790066      0.051243     -0.981687
O      11.70204     13.59907     14.56524         0.220864     -0.525501      0.348478
O      11.61287      2.24906      6.32053         0.072756     -0.628399     -0.365164
O      11.74679     13.69904      6.31943        -0.596495     -0.465409      0.282163
O      11.72446      1.92008     10.82351        -0.520807      0.476240      0.111939
O      11.70070     13.81947     10.72731        -0.927943     -1.160135      0.258254
O      11.68827      5.79173      2.06924        -1.024900      0.814043      0.241710
O      11.60699      5.64358     15.17316        -0.363675      1.158243     -1.421596
O      11.60666      5.54158      6.69288         0.446611      1.163891     -1.163750
O      11.74335      5.88574     10.59946        -0.396387     -0.653056     -0.378265
O      11.68826      9.99989      2.30468        -0.754066     -0.519165      0.304373
O      11.76196      9.55401     14.61111         1.278751      0.710003      0.877310
O      11.68771      9.46636      6.71706         1.305229      1.888422     -2.562886
O      11.71499     10.00439     10.59778         0.888052     -0.497251      0.644358
O       1.98028      3.91327      2.21231        -1.651385     -0.627085      0.442556
O       2.05725      3.77909     14.62534        -0.291239      0.017008      0.941202
O       1.88629     15.44407      2.39832        -0.229972      0.370588     -0.590999
O       1.91028     15.54219     15.04870        -0.251708     -1.101641     -0.402262
O      13.38709      3.91878      2.74184         1.049600      0.389862     -1.274885
O      13.59454      3.90211     15.08963        -0.083036      0.224071     -1.138754
O      13.78055      0.09978      2.16251        -1.028239     -2.205270     -0.031830
O      13.48938      0.02213     14.82341         0.262432      0.214186      0.117716
O       1.78357      3.92299      6.68817         0.800586     -0.200073     -0.622221
O       1.86087     15.59085      6.80016         0.618193      1.344678     -0.918867
O      13.62341      3.85251      6.27185         0.096972      1.130514     -0.500848
O      13.44842      0.11211      6.42547         0.715818     -0.173325     -0.322475
O       2.16704      3.81718     11.00169        -1.355777      0.370726     -1.237128
O       1.81455      0.13868     10.81884         0.432409     -1.921627     -1.277803
O      13.55721      3.92433     10.97235        -0.272705      1.624375     -1.432225
O      13.75001     15.55328     10.74591         0.220443      1.943489      0.265221
O       2.08725      7.75503      2.30770        -1.177930      0.787259     -0.819416
O       2.19677      7.57908     14.72588        -1.498540      1.541742     -0.120125
O      13.62768      7.88676      2.22941        -0.704015     -0.444896     -0.320107
O      14.04278      7.80895     14.92241        -1.164674      0.372268     -0.781906
O       1.81516      7.76803      6.86750        -0.221830     -0.676033     -0.976276
O      13.89302      7.83084      6.47721        -0.640944     -1.348276      0.906577
O       2.05053      7.89119     10.86949        -0.562740     -1.462178     -1.339606
O      13.49064      7.78086     10.59939         0.757152     -0.085337     -0.030705
O       1.62842     11.59192      2.51912         0.818728     -0.056055     -1.170254
O       1.85213     11.81069     14.96098         0.920409      1.114971     -1.194134
O      13.57409     11.83471      2.23944         0.229186     -0.784361      0.094883
O      13.58946     11.66233     14.67678         0.293510     -0.544892      1.326662
O       2.22358     11.71038      6.70983        -1.432442     -0.493129     -1.503552
O      13.48348     11.78382      6.48517         0.418490     -1.264018      0.078119
O       2.28412     11.98811     10.77207        -1.981934     -3.055031     -0.855751
O      14.13422     11.73517     10.62279        -1.180705      0.067659     -0.345712
O       5.84475      4.07833      2.17709         0.477091     -0.791712      0.174526
O       6.12450      3.78119     14.59262        -0.479570      1.483812      0.816950
O       5.67232      0.22827      2.12231         0.462460     -1.647532      0.780238
O       6.05540     15.54498     15.05472        -1.028914      1.151774      0.057917
O       5.96121      3.90605      6.55281        -0.456190      3.856099     -0.405234
O       5.78011     15.60065      6.38780         0.462986      0.985616      0.595883
O       6.13908      3.77304     10.59274        -0.289014      1.683338      0.331962
O       5.99865      0.12878     10.49835        -0.366687     -0.914806     -0.073461
O       5.62901      7.81679      2.16818         0.404853      0.545478      1.250504
O       5.84126      7.70086     14.45103         0.353640     -0.856396      0.938442
O       5.72267      7.81187      6.10863         0.266699     -1.936222      0.824570
O       6.01769      7.92669     10.58840        -0.453661     -1.894050     -0.127949
O       6.24865     11.69303      2.32815        -1.547212      1.377112     -0.510386
O       5.76662     11.76411     14.57747         0.347671     -3.258260      0.617047
O       5.88461     11.86720      6.61246        -0.507262     -2.658482     -0.147520
O       5.66018     11.69023     10.67901         1.031544      0.631766     -0.537202
O       9.50272      4.19141      2.57583         0.175149     -1.889133     -1.005408
O       9.70450      3.90690     14.67071        -0.673986      0.378293     -0.987688
O       9.47269      0.08378      2.14351         1.785209      1.305559      0.744547
O      10.02565     15.51053     14.71144        -0.852761      0.314192     -0.423915
O       9.46372      3.95596      6.55721         0.210731      0.638704     -0.563932
O       9.81659      0.04208      6.44932        -0.475113     -0.311196      0.218660
O       9.74110      3.86909     10.32424         1.074330      0.625669      0.583973
O       9.84771      0.12905     10.46698        -1.010695     -2.097808      0.125952
O       9.86143      7.98542      2.47912        -0.216598     -1.089519     -0.286978
O       9.91235      7.83595     14.66022        -1.126114     -0.711130      0.942633
O       9.90382      7.79548      6.34339        -0.867121     -1.367558      0.218713
O       9.94322      7.94098     10.74485        -0.613158     -1.703748     -0.368287
O       9.51115     11.84529      2.38752         0.150856     -0.746911     -0.057930
O       9.73136     11.71496     15.01611         0.534419     -0.230536     -0.488094
O       9.81940     11.59828      6.46590        -0.149624      1.031935      0.432701
O       9.64792     11.64267     10.63570        -0.108935      2.084250     -0.477291
