  # total energy = -7846.54711338 
CRSYTAL
PRIMVEC
    15.6080000000000005    0.0000000000000000    0.0000000000000000
     0.0000000000000000   15.6080000000000005    0.0000000000000000
     0.0000000000000000    0.0000000000000000   16.6239999999999988
PRESSURE
2.45632 1.12312 -2.58723 0.035559 0.0258 0.031336
PRIMCOORD
320 1
Pb       3.90424      4.10993      4.21626        -0.091838     -0.270658     -0.632500
Pb       3.88143      4.08914      0.17009         0.168513     -1.132232      0.123084
Pb       3.97299      0.12100      4.40364        -0.149059     -0.260705     -1.097824
Pb       3.76072     15.42074     16.55596         1.100211      0.186420      0.379785
Pb       0.08660      4.01858      4.25639         0.021523     -0.617888      0.263938
Pb       0.04587      3.79014      0.04425         0.322920     -0.746009      0.047203
Pb      15.52611     15.50680      4.47135        -0.456338      0.114840     -0.653095
Pb       0.31832     15.42485     16.59736        -1.512397      1.506533      1.138224
Pb       3.89803      3.68892      8.31071         0.186806      0.943107      0.531830
Pb       3.82386      0.00656      8.28592         0.090665     -0.656663      1.059681
Pb      15.40939      4.08929      8.16231         0.016130     -1.566344      0.322924
Pb      15.39194      0.16726      8.13092         0.227664     -0.577933      0.770580
Pb       4.09346      3.87905     12.39820        -0.085831     -0.300282     -0.203574
Pb       3.83769     15.58778     12.39922        -0.126762     -0.322006     -0.534954
Pb       0.00853      3.64991     12.60863        -0.396300      0.099787     -0.096273
Pb       0.05752      0.08580     12.32492        -0.026135     -0.075812     -0.496760
Pb       3.68944      7.89377      4.26036         0.496557     -0.009919      1.104524
Pb       3.60364      8.05453      0.12762         1.644816      0.076882     -0.209265
Pb      15.49736      7.94292      4.10089         0.857441      0.408143      1.681603
Pb       0.08023      7.91827      0.17137        -1.010256      0.802355     -0.241870
Pb       3.77510      7.92246      8.56527         0.663984      0.477257      0.173604
Pb       0.00871      7.52377      8.44372         0.020626      1.512954      0.380395
Pb       3.86653      7.76500     12.67511        -0.003485      0.167347     -0.569234
Pb       0.23324      7.47873     12.76256        -1.154253      0.824731      0.509926
Pb       3.88485     11.77108      4.28653         0.848341     -0.244873     -0.041224
Pb       3.74991     11.77061     16.57740         1.267341      0.375405     -0.403582
Pb      15.50259     11.61985      4.62798        -0.741752      0.080631     -0.102140
Pb       0.07227     11.83074      0.01075        -2.807299     -1.757125      0.034683
Pb       3.91980     11.69703      8.64936        -0.762134     -0.433838      0.046143
Pb      15.51568     11.24384      8.28321        -0.117690      0.529791      0.656462
Pb       3.58961     11.82767     12.48401         0.608464      0.091218      0.088336
Pb      15.46351     11.72125     12.38825         0.436798      0.763101      0.820549
Pb       7.71614      4.15058      4.24741         0.540666     -1.233262     -0.367505
Pb       7.85101      3.65386      0.01704        -0.165616     -0.681344      0.136575
Pb       7.67922      0.13661      4.01664         1.414708      0.052033      0.501230
Pb       7.72898      0.20690      0.07337         0.595727     -0.435570      0.134458
Pb       7.88818      3.93791      8.63553        -0.067581      0.008267     -0.111068
Pb       7.77797      0.21632      8.30426         0.710457     -0.752793      0.787127
Pb       7.97361      3.75490     12.64246        -1.236037     -0.030468     -0.383386
Pb       7.65326     15.34905     12.64801         0.554761      0.351282      0.309533
Pb       7.77132      7.71761      3.94113         0.146037      0.706791      0.445328
Pb       7.86003      7.94788     16.38381        -0.879851     -0.868851      1.715570
Pb       7.91544      7.72913      8.30486        -0.621692      0.061670     -0.450093
Pb       7.60390      7.69151     12.73793         0.151581     -0.365944     -1.049868
Pb       7.59833     11.92217      4.26658         0.149442     -0.992803     -0.543592
Pb       7.58154     11.33976     16.60789         1.498737      2.259070      0.125989
Pb       7.52845     11.89224      8.55041         0.071545     -1.129815     -0.206133
Pb       8.02595     11.99696     12.72947        -0.783396     -0.730071      0.814988
Pb      12.02648      3.99923      4.04202        -0.639765      0.272981     -0.191740
Pb      11.96927      3.79304      0.08010        -0.829529     -0.074842     -0.560437
Pb      11.82542     15.50891      4.05349        -0.943745     -0.354806     -0.640987
Pb      12.07411     15.54122      0.24635        -1.080693     -0.879592      0.119520
Pb      11.59659      4.00253      8.35879         0.174280     -0.073987      0.331056
Pb      11.41337      0.21047      8.14448         0.622229     -0.802714      0.725726
Pb      11.78593      3.85240     12.70932         1.075670      0.718547     -0.049533
Pb      11.71224     15.60323     12.17263        -0.169563     -1.493957      0.722581
Pb      11.65032      7.69610      4.12966        -0.782933     -0.419183     -0.804691
Pb      11.92539      7.72474     16.54297        -1.371290      0.502487      0.251645
Pb      11.57896      7.78068      8.33546         0.208506     -0.057518      1.308555
Pb      11.70041      7.75547     12.41434         0.097353     -0.318028      0.340870
Pb      11.62455     11.69714      4.34571        -0.535567      0.314551     -0.587518
Pb      11.74175     11.64308      0.17857        -0.589895      0.653285     -0.216886
Pb      11.73244     11.15367      8.16453        -0.429605      1.471286      1.163005
Pb      11.41061     11.53586     12.19260         1.042474      0.660231      0.971379
Ti       1.94103      1.91706      2.27386         0.250165     -0.696926     -1.039310
Ti       2.11294      1.94831     14.69350        -0.436855     -1.272838      0.165749
Ti       1.87642     13.54626      2.36560         1.517860      1.830488      0.609555
Ti       1.72298     13.69661     14.63837         1.933420     -0.567012     -3.502597
Ti      13.71390      1.96391      1.97018         0.917380     -1.923337      0.243507
Ti      13.76077      1.83320     14.46816        -1.154378      0.969739      2.253490
Ti      13.82040     13.48463      2.07995        -2.888223      1.500361      0.757177
Ti      13.52782     13.68513     14.26384        -1.039842     -0.715636      1.045033
Ti       2.09369      1.97459      6.28877        -2.432632      0.384686     -1.220432
Ti       1.89970     13.71519      6.41189        -0.627572     -1.006322      1.522740
Ti      13.59024      1.89622      6.11434        -0.323122      2.217940     -0.472857
Ti      13.33265     13.65419      6.47725         1.500310     -0.818985     -0.694397
Ti       1.88920      1.97578     10.24778         1.545743      0.115017      0.233041
Ti       1.71199     13.75410     10.40588         1.831342     -0.231274     -0.042758
Ti      13.49864      1.92993     10.27373         3.986259      0.637005      0.837767
Ti      13.62723     13.53585     10.19072         0.655924     -0.112258     -0.720699
Ti       1.86008      6.02742      2.37055         0.722952     -0.960484     -0.468652
Ti       1.91931      5.83114     14.97673        -0.243983     -0.918889     -0.572010
Ti      13.88071      6.00580      2.29394        -4.779291     -1.206883      0.028216
Ti      13.74162      5.93266     14.92158        -0.879484      0.017997     -3.771160
Ti       1.96438      5.93972      6.58677         1.434669      0.908738     -3.831761
Ti      13.81832      5.86465      6.30972        -1.718671     -1.930511     -1.546920
Ti       1.95083      5.79112     10.61703         1.464247     -0.122190      0.867423
Ti      13.76386      5.87918     10.74897        -2.404402     -1.425488      0.876433
Ti       1.90316      9.97000      2.27750        -2.561646     -1.388263      0.605242
Ti       1.81529      9.78332     14.82056         0.206117      0.859976     -2.310715
Ti      13.50213      9.68576      2.19932         0.050115      3.176406     -0.503607
Ti      13.53676      9.82075     14.76913         0.316002     -2.284467      0.092579
Ti       2.05306      9.89704      6.41099        -1.314743     -1.367760      0.958884
Ti      13.63474      9.44194      6.34280         0.602845      2.106450      0.745998
Ti       1.90275      9.68178     10.84896         2.354400     -0.089013     -1.853565
Ti      13.76047      9.66918     10.77442        -1.665171      0.420761     -2.073016
Ti       5.73231      1.84145      2.17989         0.046817      1.463221     -1.535194
Ti       5.83398      1.81775     14.64788         0.189827      0.400859     -0.867283
Ti       5.77671     13.70533      2.29808        -1.181675     -1.947120     -1.129359
Ti       5.75515     13.47321     14.77701        -0.491989      0.473960      1.048380
Ti       5.88386      1.92160      6.38097         2.021566      0.561326     -1.367200
Ti       5.67349     13.58375      6.49054         1.495228     -0.449840     -0.052692
Ti       5.77505      1.93312     10.28184         0.498200     -1.399485      2.001011
Ti       5.79202     13.64798     10.64351        -1.415896      0.447018     -0.958126
Ti       5.73473      5.88525      1.99836         0.670280      0.295511      0.272172
Ti       5.77451      5.76715     14.54006         0.415567     -0.892776      0.615942
Ti       5.90532      5.78930      6.13320        -0.080726      1.795997      2.949442
Ti       5.78453      5.79937     10.41876         1.467015      0.529929      1.421453
Ti       5.79720      9.71417      2.27951         1.548898      1.399994     -0.082819
Ti       5.75121      9.60585     14.47214        -0.576191      1.646951      0.571743
Ti       5.80772      9.64712      6.21104         1.020437     -0.805075     -0.303438
Ti       5.78843      9.63299     10.55974        -1.082266     -0.291779     -1.381034
Ti       9.83752      1.99657      2.32279        -0.866991     -1.341305      0.319193
Ti       9.96309      1.95806     14.61123        -0.821280     -1.939921      2.447998
Ti       9.71775     13.68801      2.11099         2.623199     -0.022481     -1.643194
Ti       9.76155     13.76774     14.70812        -1.307409     -0.412360      1.177876
Ti       9.78216      1.99669      6.36581        -0.940204     -1.710096     -1.762803
Ti       9.56660     13.52719      6.17482         2.216261      0.279051     -0.301848
Ti       9.80293      1.84199     10.72234        -2.917209      0.447214     -1.090345
Ti       9.68932     13.49366     10.31689        -0.205768      1.104583      0.292708
Ti       9.61945      5.75085      1.99187         2.580986      1.068591      2.281478
Ti       9.71674      5.78979     14.56851         1.651928      0.610106      0.636262
Ti       9.92345      5.63513      6.12987        -0.589947      1.637616     -0.506418
Ti       9.71418      5.79584     10.60782        -0.410921      0.819049     -0.952313
Ti       9.69918      9.74678      2.21441        -0.689716      0.112384     -0.086741
Ti       9.72833      9.51977     14.45941         0.723608      2.968617      1.398823
Ti       9.70992      9.46232      6.14008        -0.753637      1.810787     -0.127567
Ti       9.55100      9.63219     10.54041         0.773735     -0.607874     -1.263761
O       1.86918      1.71851      0.18295         0.252375     -0.588545      1.136882
O       1.96672      2.14233     12.88544         0.189264     -0.380581     -0.240188
O       1.59918     13.34372     16.44384         2.105290      1.781037      1.771309
O       1.80320     13.68055     12.57040         0.282584     -0.337832      0.039615
O      13.47175      1.79142     16.51748         0.646390      1.742151      3.397281
O      13.68172      2.08360     12.70474        -0.086530     -0.148524     -1.710683
O      13.87269     13.72223      0.32741        -0.597845     -0.752851     -1.743517
O      13.57902     13.26947     12.51950        -0.492056      0.624303      0.550023
O       2.13486      1.82901      4.26058        -0.185774      0.547614      2.311383
O       2.03042     13.23266      4.18183        -0.344736      0.913778      0.577383
O      13.48385      1.88823      4.30141         1.418406     -0.134366     -0.418381
O      13.68675     13.81138      4.50131        -0.397240     -0.167707      0.022483
O       2.06258      2.02021      8.43469        -0.144435     -0.599896     -1.888528
O       1.89384     13.98051      8.43077        -0.038085     -0.470871      0.182616
O      13.63872      2.14641      8.48763        -0.272502     -0.392917     -1.047683
O      13.80651     14.00342      8.39560        -0.305501     -0.908291     -0.227741
O       1.68625      5.73736      0.26426         0.966420      1.128382     -0.855743
O       2.00492      6.07874     12.49999        -0.716807     -1.896960     -1.822025
O      13.88156      6.18869      0.00926         0.112996     -0.401572      3.282894
O      13.78174      5.68112     12.55727        -0.005033      1.109755     -1.223888
O       1.88150      5.87922      4.15914         0.094927     -0.529398     -0.350212
O      13.89737      5.79261      4.21769         0.527343      0.470019     -0.662685
O       2.10937      5.94131      8.30518        -0.337654     -0.171320      2.932507
O      13.79327      5.72923      8.09485        -0.961374      0.386031      2.816825
O       1.94475      9.66105      0.08119        -0.066157     -0.045339     -0.110383
O       1.95779      9.49053     12.62353        -0.638061      0.657540      0.913168
O      13.41289      9.72092      0.11369         0.522212     -0.478763      0.492418
O      13.42382      9.65164     12.52307         1.127307      1.285636      0.123011
O       1.87421     10.11314      4.35709         0.055346     -0.550521     -1.987128
O      13.78193      9.81818      4.19423        -0.294579     -0.537624     -0.002301
O       2.03885      9.55215      8.33397        -0.008900      0.319634     -1.182529
O      13.81342      9.50596      8.26657        -0.393092     -0.072029     -0.836770
O       5.73400      1.85433      0.30253         0.086792     -0.092846      0.151402
O       5.89318      2.06268     12.72715        -0.117758     -0.511698      1.144330
O       5.55030     13.41358      0.11504         1.166558      0.311501     -0.435687
O       5.69220     13.54208     12.44646         0.160185      0.014609      1.020301
O       5.91175      1.77542      4.48397        -0.449375      0.451705      0.295888
O       5.68986     13.47616      4.21684         0.403388      0.878256      0.463692
O       5.95977      1.85341      8.49622        -0.647357      0.040189     -1.476926
O       5.76377     13.43413      8.53821         0.236845      0.788883     -2.055961
O       5.80744      6.04486      0.20747        -0.246458     -0.879435      1.319666
O       5.93432      5.51929     12.77256        -0.355623      0.203889     -0.238023
O       5.85396      5.74303      4.40403        -0.313137     -0.224402     -2.447370
O       6.01426      5.76775      8.70344        -0.466878      0.150810     -1.950806
O       6.25545      9.69662      0.10861        -2.482910     -1.505595      1.041436
O       5.44971      9.79727     12.70479         2.313722     -0.356944      0.021052
O       5.69527      9.62543      4.31416         0.066748      0.513142      0.445919
O       5.66797      9.42437      8.60927         0.064301      0.507648      0.137844
O       9.86231      2.13630      0.07133        -0.445342      0.400542      0.479123
O       9.66709      1.70345     12.65042         0.510074      0.598722     -1.395411
O       9.94500     13.65679      0.13260        -1.221577     -0.120759      0.709552
O       9.74761     13.84722     12.75396        -0.995332     -0.607548     -1.574139
O       9.67801      1.73143      4.32110        -0.281709      0.496813     -0.277086
O       9.99420     13.60821      4.35870        -0.585700      0.213573      1.592341
O       9.88680      2.00783      8.34540         0.442734      0.251052      0.595021
O       9.55624     13.48246      8.58148         0.102284     -0.335882     -0.452087
O       9.90438      5.74723      0.28257        -0.724704     -0.560786     -1.497376
O      10.05631      6.03503     12.81909        -0.695083     -0.553770     -1.773634
O       9.86556      5.78671      4.36340        -0.492227      0.214044      1.121609
O       9.51593      5.72043      8.74267         1.176226     -0.254364     -0.310990
O       9.59866      9.75166      0.40120        -0.075450      0.107223     -0.174633
O       9.78431      9.36379     12.71453        -0.057540      0.501249     -2.157873
O       9.84026      9.57527      4.32305         0.236413     -0.421141      0.259475
O       9.85456      9.56299      8.75453        -0.315271      0.157196     -1.206990
O       3.91457      1.70005      2.44733        -0.125598      0.145152     -0.343872
O       3.99774      1.56470     14.90473        -1.715284      1.056057     -0.565765
O       3.95140     13.75229      1.99283        -0.921043     -0.561847      0.924895
O       3.73764     13.75833     14.63943        -0.575706     -0.571667      0.105100
O       0.05162      2.09187      2.33761        -1.900820     -0.124176     -0.079009
O      15.48439      1.99069     14.84386         1.707725      0.054642     -0.475344
O       0.04552     13.42275      2.23325         1.479567     -0.794032      0.319133
O      15.28999     13.55640     14.59304         1.448150     -0.007222     -0.205985
O       4.03700      1.88956      6.67834        -1.332756      0.673696     -0.648300
O       3.90975     13.39848      6.35486        -0.724818     -0.014516     -0.116323
O       0.09501      1.70605      6.35874         0.998222      0.853641     -0.500446
O       0.09806     13.90116      6.31012         0.731459     -0.121115     -0.073050
O       3.84072      1.91185     10.53060         1.113861     -0.219823      0.050485
O       3.85466     13.91231     10.54766        -0.765304     -0.699774     -0.035142
O       0.21525      1.93683     10.71903        -3.114941      0.899378      0.414738
O      15.51721     13.56351     10.87715         0.740511     -0.175678     -1.270788
O       3.80676      5.71390      2.23313         0.229703      1.048561     -0.067942
O       3.87028      5.72835     14.59226        -0.733564     -0.359780      0.922262
O      15.58804      5.68552      2.35094         3.180447     -0.033316     -0.720869
O       0.07440      5.67691     14.60556         0.859828      0.270200      0.037327
O       3.90932      6.10145      6.19317        -0.537919     -0.732387      0.135271
O       0.04046      5.86358      6.50094         1.442844     -0.083474     -0.550820
O       3.98957      5.80250     10.87956        -2.261204     -0.520742     -0.982760
O       0.01871      5.94134     10.40073         0.986615     -0.367534     -0.239150
O       4.01942      9.58744      1.91668        -2.197527     -0.431160     -0.106652
O       3.77845      9.61140     14.59320        -0.004674     -0.731271      1.789436
O      15.57572     10.21030      1.87892         2.134249     -0.873592      1.251480
O      15.55638      9.78517     14.76983         1.039997     -0.140050     -0.020195
O       3.86883      9.80024      6.16279         0.009327     -0.196833      0.596833
O      15.55774      9.89553      6.36024        -0.260562     -0.555344     -0.741290
O       3.92558      9.60439     10.81208        -1.611697     -0.437285     -0.892950
O       0.10536      9.94042     10.61806        -2.092908     -0.082183     -0.035754
O       7.80816      2.01858      2.00907         0.489070     -0.276571      0.666745
O       7.65136      1.89160     14.95782         1.399528      0.167275     -0.014102
O       7.99107     13.97880      2.32936        -3.162217     -1.416330      0.253865
O       7.58427     13.66756     14.45213         1.073193     -0.470192     -0.139972
O       7.84859      1.59997      6.55508        -1.525530      1.084085     -0.624393
O       7.80843     13.73405      6.13870        -0.983210     -0.266910      0.665296
O       7.91643      2.03473     10.33734         0.226359     -0.637555      0.619082
O       7.70931     13.50718     10.56554         0.575828      0.293685      0.158616
O       7.83249      5.67092      2.47727        -1.588722      0.365440     -0.967528
O       7.89242      5.92969     14.41405        -0.673245     -0.772392      0.954648
O       7.76940      5.91548      6.28405         0.894395     -0.361245      0.020616
O       7.76009      5.87488     10.72559         1.856263     -0.756161      0.845144
O       7.67788      9.85885      2.46485         2.523277     -1.092552     -0.063821
O       7.76753      9.37590     14.64917        -0.764162      1.627723     -0.847839
O       7.91293      9.40629      6.32992        -0.436444      0.152650      0.268360
O       7.71599      9.54186     10.50672        -0.088574      0.178979      0.651312
O      11.76316      1.75139      2.37982         1.165363      0.927255     -1.151381
O      11.69552      2.21544     14.81549         0.947188     -0.460950     -1.549069
O      11.76025     13.75263      2.18480         1.150413      0.716617      0.533454
O      11.45011     13.54985     14.65404         4.379782     -0.285868     -0.210989
O      11.64069      2.12838      6.22813         1.349643     -0.339125      0.981682
O      11.57125     13.58325      6.65941         0.155811      0.252477     -0.234382
O      11.79731      1.86402     10.69191        -2.655781     -0.126999      0.037827
O      11.84850     13.44463     10.53482        -2.643525      0.677934      0.173817
O      11.90392      5.98530      2.48210         0.204292      0.457455     -0.595517
O      11.71885      6.07066     14.84574         0.617068     -0.555474     -0.081773
O      11.93359      5.62114      6.03489        -2.821287     -0.248498      1.230569
O      11.83767      5.86201     10.56231        -0.261451     -0.513590     -0.188715
O      11.66254      9.38168      2.21984         1.037322      1.020851      0.396444
O      11.68625      9.53089     14.70252        -1.480113     -0.116186      0.053295
O      11.72053      9.59711      6.50565         0.811296     -0.630904     -0.443709
O      11.69503     10.12229     10.47390         0.757676     -1.213503      0.534556
O       2.03218      3.70067      2.16592         0.441233      1.762354      0.180130
O       1.87393      3.64051     15.20544         0.909329      2.932122     -0.717929
O       1.85599     15.39975      2.34109        -0.252652     -0.727217     -0.366274
O       1.74906     15.55186     14.64273        -0.223873     -0.166174      0.326323
O      13.58436      4.07171      1.98990         0.236541     -1.680099     -0.012890
O      13.63663      4.10393     14.61520        -0.450866     -1.194074      0.782007
O      13.95693      0.02345      1.94473        -0.779796      1.771057      1.153139
O      13.47702      0.04588     14.57824        -0.265264     -2.812055     -0.869522
O       1.86676      3.98823      6.26967         0.819244     -1.439497      0.164869
O       2.29746      0.04204      6.26902        -0.364522     -0.746658      0.125454
O      13.87179      3.87362      6.17412         0.713650     -0.969157      0.280574
O      13.74507      0.09946      6.38819        -1.024101     -0.726777      0.280128
O       2.12446      3.85028     10.33882        -0.552023      2.811710      0.753533
O       1.81717      0.09610     10.64220         0.289561     -2.061166      0.206184
O      13.71086      3.77957     10.60305         0.226856      1.291621     -0.362983
O      13.92956      0.01447     10.48624        -0.993016      0.398607      0.728721
O       1.66562      7.97079      2.34645         0.815470     -1.496612     -0.552917
O       1.89324      7.56282     14.45441        -0.076111      1.640373      2.102400
O      14.10556      7.99134      2.11840         0.031307     -2.484647      0.000966
O      13.83743      7.90027     14.56267         0.041482     -1.892571      0.349011
O       1.66494      7.78624      5.99252         1.114146      0.515170      0.829697
O      13.59795      7.66746      6.12669         0.465301      1.280466     -0.096170
O       1.92791      7.89877     10.37500        -0.143392     -2.184200      0.114037
O      13.60721      7.88607     10.41062         0.650971     -0.880534      0.497460
O       2.52233     11.53345      1.97095        -0.883133      3.273216      0.392696
O       1.92667     11.64751     14.49340        -0.272018     -0.723761      0.268644
O      13.44869     11.71325      2.13852        -0.357623     -1.426670      0.203406
O      13.44222     11.54367     14.86458         0.151181      3.768255     -0.730597
O       1.79792     11.74095      6.71745         0.460027      0.803278     -1.232223
O      13.56038     11.77747      6.45408         0.493286      0.107546      0.075472
O       2.21998     11.70801     10.38367        -0.857746      0.580133      0.713792
O      13.72605     11.67287      9.89367         0.475026      0.267421      1.597402
O       5.68665      3.79552      2.36856         0.050902      1.464355     -0.131107
O       5.94022      3.88425     14.96172        -0.585555     -0.069258      0.084335
O       5.86815     15.54264      2.23611         0.635692      0.537070      0.480521
O       5.86939     15.33965     14.85640        -0.171942      2.935940     -0.227587
O       5.85339      3.88295      6.49648        -0.137329     -0.831603     -0.282257
O       5.69189     15.42874      6.35508         0.003981      0.451205      0.782037
O       5.83182      3.71459     10.49928        -0.302877      2.044425      0.412491
O       5.77950      0.02922     10.52736         0.806144     -0.845514      0.523421
O       5.79798      7.81725      2.54534         0.342811     -2.770227     -1.020536
O       5.88907      7.72087     14.74700        -0.797148     -0.654062     -0.684477
O       5.92687      7.84810      6.39276        -0.718677     -1.212374     -0.000768
O       5.72850      7.62115     10.86998         0.484938      1.175709     -0.012407
O       5.97005     11.67451      2.42609        -0.721092      0.185841     -0.653574
O       5.67298     11.58566     14.82806         0.558440     -0.774938     -0.599165
O       6.13736     11.56168      6.34732        -0.349021      0.965639      0.419489
O       5.48939     11.51018     10.24262         1.714149      1.385222      1.492316
O       9.95589      3.91746      2.61486        -0.317597     -0.276801     -1.307913
O       9.79133      3.83344     14.35169        -0.938645      1.468882      0.382051
O       9.82438      0.01853      2.24383         0.146642      1.238664      0.074831
O       9.73999      0.08006     14.68105        -0.327256     -0.182016      0.477000
O       9.49190      3.80287      6.36344         0.413881      1.731545      0.179256
O       9.88487     15.57704      6.61699        -0.775008     -1.009426     -0.684813
O       9.79720      3.79247     10.54766         0.551214      0.615226      0.962668
O       9.70332     15.56326     10.40672         1.006068     -0.435800      0.322548
O       9.78773      7.71750      2.42294        -1.156076     -0.455971     -0.237695
O       9.58049      7.78375     14.89957         1.463069     -1.655812      0.168688
O       9.97986      7.58010      6.76838        -0.579761     -0.731488     -1.267193
O       9.91546      7.75336     10.53501         0.053136     -1.031645      0.793773
O       9.92330     11.80439      2.52773        -0.163154     -2.058005     -0.648778
O       9.34402     11.58454     14.66143         0.799438     -0.512145     -0.433916
O       9.79846     11.37382      6.33904        -0.108404      2.032432      0.004839
O       9.45386     11.58089     10.83140         1.012746      1.150299     -0.348399
