  # total energy = -7843.24104669 
CRSYTAL
PRIMVEC
    15.6080000000000005    0.0000000000000000    0.0000000000000000
     0.0000000000000000   15.6080000000000005    0.0000000000000000
     0.0000000000000000    0.0000000000000000   16.6239999999999988
PRESSURE
2.47779 3.64516 -0.851922 0.413211 0.360989 -0.234962
PRIMCOORD
320 1
Pb       3.46473      3.73791      4.09732        -0.028759      0.723659      1.334208
Pb       3.71613      3.91571      0.17535         0.535770      0.156190     -1.277925
Pb       3.56878     15.54595      4.03725         0.594547     -0.784702      0.811613
Pb       3.99234     15.58959     16.33334        -1.052892     -1.409530      0.978934
Pb      15.32889      3.93263      4.09853         1.030543     -0.346330      0.164092
Pb       0.12711      3.78750     16.32971         0.032281      0.487916      0.369296
Pb       0.23546     15.40178      4.15087        -0.583259      0.735347      0.274241
Pb      15.50156     15.45588      0.08893         0.002845     -0.615057      0.425554
Pb       3.91041      4.04351      8.34075         0.602416     -0.914328     -0.789597
Pb       3.98405     15.54023      7.93141        -0.484842      0.620386     -0.049814
Pb       0.14668      3.85616      8.57934         0.038660     -0.006194     -1.114465
Pb       0.36578      0.21568      8.77819        -0.501906     -0.453901     -1.378099
Pb       4.10775      3.85812     12.61346         0.049807      0.255905      0.122269
Pb       3.85186     15.39749     12.54795         0.347864      0.690820      0.224598
Pb      15.46220      3.96356     12.31955         0.510495     -0.008982      1.437651
Pb      15.60038      0.15990     12.81671         0.165112     -0.133717      0.169361
Pb       3.87405      7.41613      4.30285        -0.452690      0.558369     -0.496933
Pb       3.86644      7.76141      0.03504        -0.427801      0.021996     -1.249833
Pb      15.41023      7.81915      4.49899         0.008164     -0.413118     -0.899511
Pb      15.33696      7.84089      0.18844         1.279914     -0.247344      0.101681
Pb       3.69216      7.68355      7.97977         1.329671      2.160835      2.180797
Pb      15.52725      7.68405      8.39472         0.130272      0.696289     -0.026954
Pb       4.13247      7.95998     12.13121        -0.835088     -0.863575      1.731968
Pb      15.45793      7.89979     12.60567         0.925697     -1.406407      0.015915
Pb       4.21299     11.42758      3.78761        -0.844462      2.368620      2.193868
Pb       4.22636     11.42693     16.31853        -1.265761      1.333172      0.693831
Pb      15.35918     11.91389      4.15123         0.538963     -1.391429      0.760947
Pb      15.60410     11.57536      0.22896        -0.425392      1.116025     -0.587389
Pb       4.18198     11.61610      8.29258        -1.261932     -0.568996      0.026079
Pb       0.07049     11.62158      8.81955         0.614314     -0.392298     -1.381003
Pb       3.70645     11.53034     12.25148         0.308920      0.123901      0.169652
Pb       0.04697     11.65410     12.55027        -0.026502     -0.463531     -0.362388
Pb       7.65515      3.83511      4.42676        -0.615057      0.258453     -0.503165
Pb       7.85456      3.92925      0.26807        -0.973507      1.632115     -0.582560
Pb       7.33385      0.00576      4.20178         0.639309      1.069769      0.406523
Pb       7.90245      0.14379      0.25648        -0.728345     -1.894185     -0.657454
Pb       8.12457      3.83073      8.69694        -0.360622      0.331320     -0.665431
Pb       7.77757      0.09203      8.33111         0.044632      0.019630     -0.462780
Pb       7.71774      3.60919     12.70175         0.629130      0.563794     -0.444822
Pb       7.75101     15.60702     12.30048         0.172230     -0.389099      0.604379
Pb       8.04933      7.74966      4.15910        -1.317871      1.054264     -0.996283
Pb       7.95077      7.66079     16.46959        -0.690737     -0.781844      1.007552
Pb       7.78926      7.58178      8.12719         0.110348      0.924374      0.501496
Pb       7.82989      7.57762     12.26350         0.267345      1.788232      1.496672
Pb       7.90199     11.67035      4.32646        -0.301116     -1.508806     -0.121620
Pb       7.72402     11.53753      0.03039         0.337864      0.733589      0.039964
Pb       7.96110     11.81473      8.59011         0.499954     -0.805141     -0.723401
Pb       7.32526     11.60102     12.36270         1.255501      0.009368      0.239463
Pb      11.67115      3.96970      4.23507         0.435117     -0.763170     -0.622372
Pb      11.54196      3.79346      0.17944         0.212440      0.603791      0.039329
Pb      11.38349      0.23136      3.84565         5.160891     -0.024791      3.559876
Pb      11.30046     15.52139     16.41804         2.966169     -0.580993      1.573097
Pb      11.59267      3.56026      8.22280        -0.876754      0.267280      0.128381
Pb      11.60323     15.40561      8.53744        -0.453591      0.199753     -0.281010
Pb      11.73114      4.21372     12.46461        -0.614141     -1.176790      0.567764
Pb      11.84822      0.17695     12.73584         0.173586      0.205371     -0.215542
Pb      11.90617      8.08404      3.88786        -0.367828     -0.465814      0.690589
Pb      11.20985      7.90871     16.56664         0.904885     -0.929376      0.901255
Pb      11.32557      7.81798      7.99812         0.273707     -0.159426      0.905024
Pb      11.74730      7.96421     12.33004        -0.858467     -0.361394      0.325285
Pb      11.61775     12.15531      4.29892         0.384278     -2.084792      0.508443
Pb      11.48565     11.88056      0.26136         1.106436      0.271492      0.382488
Pb      12.07706     11.76075      8.49599        -1.111598     -0.026794     -0.919754
Pb      11.94101     11.98684     12.71660         0.007493     -0.518228     -1.067316
Ti       1.92676      1.80671      2.05558        -2.193095     -0.556652     -0.345882
Ti       2.02286      1.87065     14.58279        -0.849213     -0.877517      0.961736
Ti       1.96826     13.29114      2.29753         0.444787      4.378583     -0.349757
Ti       2.05331     13.49153     14.55529        -0.630521      1.343871      2.369279
Ti      13.79937      1.85643      2.07522        -1.306674     -0.131814      2.304222
Ti      13.57855      1.98784     14.77520         1.278771     -1.040273     -1.139339
Ti      13.58566     13.72625      2.50644         0.833949      0.625264     -4.428584
Ti      13.83638     13.54731     14.77989        -0.947035     -0.662177      4.100460
Ti       1.82283      1.91676      6.46817         0.645212      0.714066     -1.391454
Ti       1.97143     13.26982      6.29807        -0.041631      3.168111     -0.532023
Ti      13.70557      1.82054      6.35329        -0.069949      0.085533     -2.066305
Ti      13.67711     13.71784      6.50327         0.898844     -2.085065     -0.747651
Ti       2.12886      1.99420     10.54284         0.070818     -2.931338     -0.554925
Ti       2.12837     13.72542     10.26030        -1.254916     -1.036985      0.290875
Ti      13.66553      1.85752     10.46138        -0.612742      2.892901     -0.000407
Ti      13.81787     13.73273     10.38148         0.179137      0.638419      0.626842
Ti       1.76706      5.81560      2.02214        -0.704306     -0.273736      0.074603
Ti       2.03075      5.88636     14.50669        -0.145133      1.288319     -1.251426
Ti      13.62905      5.76077      2.13329        -0.525506      1.542058     -0.218250
Ti      13.51923      5.83644     14.82900        -0.320371     -1.072065     -1.605647
Ti       1.80799      5.89404      6.59007        -0.763869     -2.845189     -3.674652
Ti      13.46875      5.66453      6.32809         0.665618      1.919771     -0.275622
Ti       2.20576      5.63369     10.52794        -3.332872      2.111400      1.696043
Ti      13.65669      5.70417     10.36969         0.343133      0.822303      1.324391
Ti       2.03115      9.56364      2.13894        -2.087328      0.974233     -1.926446
Ti       2.00314      9.73514     14.73856         0.429129     -2.807878     -0.518444
Ti      13.68052      9.78521      1.96329        -0.583388      0.468920      1.055699
Ti      13.70800      9.47338     14.65616         0.091139      3.273530      0.288048
Ti       1.78746      9.73846      6.20790         0.322922      0.655061      2.001012
Ti      13.62940      9.59888      6.41093        -0.180373      2.215334     -1.319781
Ti       1.89011      9.63836     10.61677        -0.353094     -0.406553     -3.070069
Ti      13.59022      9.54400     10.35282        -0.125380      3.027567      0.328889
Ti       5.68089      1.97827      2.07878         1.154070      0.995018      1.273265
Ti       5.96141      1.84895     14.74821        -1.565208      1.422975      0.445521
Ti       5.80017     13.68818      2.01067        -1.238868     -1.882202     -1.967424
Ti       5.99911     13.62216     14.57873         0.113480     -1.005700      1.416329
Ti       5.83953      2.11216      6.34954         0.001365     -0.806779     -0.138126
Ti       5.86612     13.64810      6.22066        -0.371579      0.113948      1.194094
Ti       5.84657      1.81217     10.37251        -0.126096      2.186163     -1.414542
Ti       5.77709     13.72358     10.24531         0.712472     -0.888396      0.328683
Ti       5.66799      5.84413      2.16040         3.086687      0.433136     -0.597471
Ti       5.75872      5.89631     14.42015         0.823195     -1.858188     -0.107705
Ti       5.79575      5.91903      6.23325         1.242403     -1.232623     -0.039147
Ti       6.03083      5.90025     10.37957        -0.126472     -2.138795     -0.582468
Ti       5.79864      9.63611      1.87988         4.222083     -1.874342      1.888793
Ti       6.11493      9.52171     14.67140        -1.732443      0.903623     -2.130042
Ti       5.73627      9.83258      6.30032         2.044040     -0.913876     -0.672030
Ti       5.88365      9.72620     10.35362         0.839161     -0.564904      1.647393
Ti       9.63072      1.97137      2.08669         0.427100      1.981771      1.209015
Ti       9.68617      1.92844     14.75103         0.404031      1.746630     -3.001419
Ti       9.55550     13.69957      2.48585         0.408228     -1.379961     -1.924183
Ti       9.79772     13.51922     14.59321        -1.581885      1.111461      0.052898
Ti       9.62973      1.78693      6.12545         1.256709      1.132824      2.360765
Ti       9.76744     13.73910      6.42701        -0.308827     -2.172284      0.224775
Ti       9.81029      1.81250     10.68417         0.003630      1.201566     -0.520724
Ti       9.74031     13.62750     10.64484         0.853442     -0.519567     -1.003071
Ti       9.63874      5.82449      2.29535        -0.351567      1.669391     -1.937154
Ti       9.68084      5.92974     14.44377        -0.635601     -1.234974      0.373245
Ti       9.68470      5.85510      6.13061        -0.693382     -1.480295      1.158131
Ti       9.87613      5.84998     10.52673        -1.211581     -0.098157     -1.127388
Ti       9.83974      9.73096      2.20142        -1.548110      0.040825      0.596329
Ti       9.95924      9.84513     14.47651        -2.303630     -0.368432     -1.936133
Ti       9.80914      9.82629      6.22487        -1.647781      1.300335     -0.730165
Ti       9.79591      9.80884     10.51797        -0.841732     -0.387237     -0.900834
O       1.79201      1.88405      0.24756         1.151488      0.022749      1.280671
O       1.87687      1.58865     12.81383         1.028025      0.422913     -1.870082
O       2.31036     13.37821      0.62137        -0.646223     -0.018933     -2.849674
O       1.78886     13.59893     12.82443         0.340654     -0.257106     -0.869295
O      13.84875      2.00165      0.38629        -0.335336      0.553058     -3.475838
O      13.86430      1.66605     12.84391        -1.232922      0.990547      0.478429
O      13.65050     13.74114      0.50096        -0.261559     -0.398869      0.295137
O      13.74776     13.94562     13.09463        -0.196940     -0.449551     -2.262224
O       1.91744      1.77662      4.60375        -0.092308      0.954320     -0.130661
O       1.84177     13.72512      4.43368         0.232439      0.327584      0.437827
O      13.62084      2.13748      4.56737         0.139028     -0.889629      0.326250
O      13.76848     13.63120      4.53268        -0.136686     -0.841793     -0.335271
O       2.06594      2.04582      8.67915        -0.143780      0.284692     -0.004499
O       2.19444     13.47880      8.52145         0.075765     -0.061359     -0.940391
O      13.26416      1.96651      8.62607         1.073489     -0.455324      0.265386
O      13.79104     13.61301      8.56486        -1.106438      0.747292      0.123844
O       1.68198      5.90151      0.21849         1.675666     -0.374349      1.357350
O       1.94307      5.79706     12.69677         0.321209     -0.400156     -0.549404
O      13.98627      5.94891      0.36542        -1.913121     -0.768640     -1.234677
O      13.75382      6.04031     12.99616        -0.333897     -0.937676     -0.530093
O       1.61440      5.73454      4.62478         1.169013      0.488022      1.138090
O      13.45349      6.02637      4.44595         0.826514     -0.693158      0.345297
O       2.03579      5.56786      8.65917        -0.235826      0.741961      1.176945
O      13.64572      5.59300      8.68881         0.021620      0.265533     -2.622867
O       2.01466      9.57200      0.19150         0.476355      0.045525      1.947985
O       1.91216      9.99359     12.71131        -0.236781     -0.759969     -0.094668
O      13.51648      9.57821      0.18991         0.417208      0.172485     -1.319189
O      13.66872      9.68024     12.72207         0.236721     -0.264013      0.900767
O       1.96244      9.57841      4.51204        -0.194700     -0.850188     -2.608396
O      13.77782      9.71099      4.50874         0.265987     -0.629410      0.467087
O       1.72843      9.99397      8.71042         0.529641     -0.919028     -0.134521
O      13.43566      9.83909      8.53447         0.275668     -0.553886      1.052384
O       5.61272      2.11564      0.31727         0.127166     -0.568421     -0.641028
O       6.07413      1.68943     13.02345         0.241769      0.366907     -2.462988
O       5.61591     13.44876      0.09357         0.257287      0.784421      2.103276
O       5.70877     13.45202     12.76858         1.036269      0.550401     -0.275187
O       5.99390      2.00020      4.42874         0.685039     -0.039952     -0.319951
O       6.01461     13.83063      4.45697        -0.142209     -0.804331     -0.924143
O       5.82005      1.88741      8.52645         0.205117      0.149340      1.914714
O       5.49655     13.70116      8.43362         1.176102     -0.012335      1.060558
O       6.03789      5.92158      0.35432        -1.448656      0.068037     -0.739550
O       5.85770      6.09332     12.55671         0.185320     -1.104274      1.206139
O       5.47173      5.70280      4.32091         1.067508      0.526731      2.246986
O       6.07859      5.80567      8.49322        -0.651189     -0.182088      1.250665
O       6.07119      9.48568      0.04143        -0.783556      0.339630      1.989533
O       6.05786      9.70902     12.67102        -1.309724     -0.368256      0.082592
O       5.74939      9.86951      4.52736         0.318352     -0.484358     -0.323157
O       5.90521      9.81926      8.69089        -0.168776     -0.409992     -3.649449
O       9.74956      2.04215      0.25867         0.312223     -0.340756     -0.729949
O       9.64903      2.10546     12.84813        -0.686255     -1.468858      0.167984
O       9.88808     13.98327      0.72786         0.692540     -0.464646     -2.169941
O       9.69536     13.66929     12.84306         0.238297     -0.697852     -0.683172
O       9.51286      2.27700      4.46215         0.264710     -0.272662     -2.227334
O       9.75497     13.64738      4.41345        -0.458159      0.019512      1.463585
O       9.86283      1.62636      8.76400         0.706779      0.671518      0.101243
O       9.85820     13.74296      8.68545        -0.080863      0.581002     -0.402150
O       9.57159      6.06235      0.16770         1.029871     -1.235958      0.081242
O       9.77759      5.86926     12.57065        -0.295734      0.016263      1.156859
O       9.68040      5.77948      4.31312         0.032038     -0.365110     -0.567876
O       9.55367      6.01992      8.64941         0.632696     -0.524861      0.208515
O       9.71895      9.90549      0.36368         0.678733     -0.621562     -0.352619
O       9.90766      9.92931     12.59499        -0.163025     -0.265590      2.021458
O       9.79366      9.95085      4.33230        -0.539487     -0.323424      0.830011
O       9.63245      9.47919      8.60836         1.102459      0.953356      0.081725
O       3.83291      2.07261      2.59145        -0.139813     -0.528549     -1.458500
O       4.01989      1.69262     14.69081        -0.704710     -0.185638      0.309851
O       3.89265     13.70222      2.61437         2.130230     -0.544465     -0.174153
O       3.89848     13.80769     14.62991        -0.986692     -0.638726      0.263350
O      15.60771      1.86714      2.48783         0.623497      0.093659      0.076709
O       0.11906      2.16860     14.65814        -1.555110     -0.537582      0.511160
O       0.00870     13.56557      2.45147        -0.290916     -0.108851      0.218922
O      15.58658     13.48854     15.26176         1.712836      0.498357     -1.048581
O       4.10229      1.85506      6.30648        -2.606495     -0.105035      0.797347
O       3.88729     13.80651      6.23606         1.381742      0.163893      0.654861
O      15.55528      1.90423      6.70458        -0.995277      0.871901      0.449464
O       0.20959     13.25002      6.55573        -2.368245      0.964061      0.290201
O       3.99278      1.66979     10.76767         1.053463      0.808910      0.396208
O       3.92200     13.94826     10.73370         1.054409     -1.659462     -0.091508
O       0.13743      2.19039     10.60236        -1.614743     -1.143244     -0.338599
O       0.13561     13.80699     10.34964        -0.539614     -0.320467      0.876166
O       3.89606      5.89641      2.21666        -3.339742     -1.023144     -0.102304
O       3.87488      5.45299     14.54529         1.902081      0.989410      0.986926
O      15.53403      6.17137      2.35047        -0.013870     -0.776518      0.745038
O       0.31234      5.70529     14.78476        -3.712002     -0.561941      0.214320
O       3.85417      5.81480      6.76845         0.365549      0.432262     -1.167174
O       0.01983      5.90429      6.82611        -1.262050     -0.128894      0.089047
O       3.87517      5.78310     10.96177         2.074244      0.096801     -1.272414
O       0.05928      5.71610     10.95027        -1.055461      0.391996     -2.035260
O       4.15597     10.28015      1.94787        -3.301841     -2.536663     -0.618372
O       3.96447      9.51632     15.01811         0.196090      0.770748     -0.856714
O       0.07473      9.80030      1.94497         1.403354     -0.800514      1.362268
O       0.06990      9.47797     14.82616        -0.916071      0.466357     -0.306282
O       3.89149      9.72821      6.59080        -0.638910     -0.353838      0.410058
O      15.50513      9.76036      6.59698         1.315973     -0.613391     -0.188794
O       3.83090      9.68659     10.57762         1.240793      0.290274      0.490587
O      15.51545      9.91178     10.58792        -1.107486     -0.384700      0.963658
O       7.72073      2.03329      2.12829         0.658826     -0.709672      0.056263
O       7.86008      1.87860     14.97754        -0.543257     -0.161187      0.694165
O       7.81416     13.82342      1.98152        -1.786568      0.430808      1.407922
O       7.80650     13.55397     15.19389         1.180226     -0.116141     -1.055556
O       7.91775      1.95140      6.69453        -0.526691      0.242627     -0.057036
O       7.80558     13.80541      6.63891         0.653288     -1.165616     -0.039176
O       7.90770      1.94277     10.61720        -1.835457     -0.290393      0.746555
O       7.76604     13.57005     10.50166        -1.385466      0.520715      0.137713
O       7.74834      6.16177      2.09407         0.703632     -0.427157      2.019346
O       7.78095      6.01507     14.73121        -0.038560     -0.510069     -0.764661
O       7.76960      5.87153      6.30125        -2.387503      0.057898     -0.370562
O       7.83504      6.11488     10.67008        -0.139181     -1.698140     -0.982603
O       7.88343      9.40352      2.43177        -1.063980      1.455730     -0.405732
O       7.86177      9.60172     14.73201         1.835932      0.366280      0.039315
O       7.82918     10.04709      6.30498         0.574327     -0.774480      0.189520
O       7.86200      9.83582     10.56340        -0.733850     -0.407315      0.537639
O      11.79214      2.02958      2.27215        -1.878806      0.509639      0.335381
O      11.69833      1.94765     14.57443        -0.154701     -0.121563      1.055097
O      11.75426     13.70960      2.59370        -1.279133     -0.042625      0.407047
O      11.69538     13.47936     15.01098         0.050067      1.141452     -0.419598
O      11.59048      2.07181      6.34918         0.245459      0.238099      0.775941
O      11.74826     13.77872      6.55532        -0.182964     -0.115396      0.389119
O      11.61757      2.16534     11.02603         2.088203     -1.575560     -0.423413
O      11.69009     13.64177     10.81709         0.445080      0.929428     -0.135363
O      11.50336      6.08238      2.25765         3.003787     -1.998161     -0.189678
O      11.55963      5.91010     14.72353         2.078547     -0.207081      0.827157
O      11.57079      5.74280      6.46771         1.043576     -0.245785      0.236352
O      11.69300      5.74747     10.70902         2.084719      0.506237     -0.144032
O      11.78333      9.91056      2.42758        -1.191578     -0.151334     -0.437972
O      11.69660      9.65898     14.81403         1.865729     -0.000957     -0.247254
O      11.69156      9.64724      6.14066        -0.538831     -0.846217      1.639128
O      11.68202      9.88031     10.81355         1.714475      0.078650     -0.842558
O       1.62218      3.84977      2.41200         1.602042      0.871849     -0.508733
O       2.20014      3.63040     15.03863        -0.006676      1.459400     -0.427019
O       1.87040     15.52085      2.30931         0.524146      1.717877      0.521980
O       1.59721     15.48307     15.00250         1.468067     -0.481814     -0.749070
O      13.56881      3.91496      2.32009         0.278618      1.208812      0.368801
O      13.49700      3.92880     14.93481         0.333008      0.064299      0.388008
O      13.57365      0.01913      2.33954         0.291565     -0.286995      0.948853
O      13.65960      0.14240     15.16019         0.320770     -0.474230     -0.751718
O       1.93055      3.91167      6.78843         0.254644     -0.483668     -0.507858
O       1.71385      0.16380      6.68144         0.990079     -1.968874      0.799237
O      13.95679      3.95659      6.16557        -1.281335     -0.165148      1.716840
O      13.79618     15.45695      6.29858         0.019418      2.482510      1.094968
O       2.19393      3.69172     10.88494         0.154124      3.480188      0.220277
O       2.11446     15.59300     10.28726        -0.936596     -0.019070      0.809124
O      13.63797      3.90137     10.60869         0.137724     -1.016196      1.225484
O      13.78052      0.15943     10.78056        -0.481480     -2.621145     -0.459453
O       2.11691      7.69503      2.35156         0.201413      1.949192      0.193914
O       2.18385      7.80342     14.67390        -0.184840     -1.342228      0.065671
O      13.57365      7.97642      2.30049         0.492848     -1.867789      0.514378
O      13.77043      7.67554     14.79011        -0.088077      1.213519      0.833229
O       1.79470      7.82549      6.69573         0.476608     -0.344850      0.178277
O      13.63611      7.67550      6.72182         0.237323      0.247528     -0.198240
O       1.83727      7.75536     10.43247         0.470697     -0.237266      0.799340
O      13.57321      7.84058     10.31867         0.117885     -2.423640      1.021945
O       2.08543     11.61582      2.57344        -0.706544     -4.782995      0.529999
O       2.08805     11.51899     14.86177        -0.213977      3.094046     -0.158323
O      13.66069     11.64337      2.18340         0.444949      1.167803      0.936469
O      13.91405     11.61012     15.05401        -1.087599     -0.212737     -1.398980
O       2.07301     11.58392      6.08133         0.722270     -1.784228      0.624639
O      13.58493     11.60797      6.71897        -0.595163      0.691404     -0.519243
O       2.06866     11.60465     10.58351        -0.170159      2.649022      1.050561
O      13.69087     12.03392     10.86396         0.325176     -1.328877      0.140863
O       5.93576      3.99710      2.29747        -0.297013     -1.614212      0.059080
O       5.84451      3.87858     14.74895         0.817196     -1.037577     -0.344191
O       5.77711     15.57189      2.09987         0.307179      1.614707      0.477433
O       5.89496     15.39947     14.96868         0.795733      1.946215      0.016327
O       5.67494      3.95143      6.55809         0.916727      0.681151     -0.361548
O       6.11500      0.15068      6.60613        -0.660593     -1.817067     -0.648482
O       5.97293      3.87240     10.74297        -0.498576     -0.434039      0.064220
O       5.98919     15.56364     10.63691         0.338438     -0.243670      0.125330
O       5.47398      7.89724      2.72585         0.541552      0.957598     -1.792851
O       5.77474      7.65348     14.70234        -0.400447      0.930479      0.494503
O       5.88469      7.82546      6.59528        -0.831173     -0.642271     -0.773493
O       5.83078      7.71965     10.56774        -0.298951      1.543682     -0.269685
O       6.02349     11.71209      2.14935         0.785330      0.192638      0.567494
O       6.09342     11.48550     14.84514        -0.698660      0.889740     -0.368406
O       5.91886     11.69421      6.52124        -0.849981      2.203782      0.309822
O       5.82331     11.65669     10.35844        -0.530121      1.816762      1.143198
O       9.66392      3.96034      2.18863         0.202484     -1.016110     -0.023766
O       9.63544      3.93104     14.63138         0.235040     -0.251556      1.306009
O       9.87837      0.22045      2.54104        -3.967586     -0.770754     -2.640371
O       9.70738     15.50770     14.80690         0.071878      0.772221      0.216825
O       9.42168      4.08472      6.72006         1.316219     -1.305722     -0.505149
O       9.71646     15.51885      6.23267         0.179623      1.878611      0.392514
O       9.76005      3.90521     10.72343        -0.631927      0.102160     -0.703628
O       9.60367     15.55330     10.85237         0.861011      0.252057      0.323609
O       9.87816      7.77743      2.28684        -0.225153      2.160607      0.596569
O       9.79990      7.87396     14.64157        -0.020460      0.233086      0.214301
O       9.41487      7.72302      6.32600         1.740549      1.457182      0.477029
O       9.96886      7.74731     10.71233        -0.109094      1.502312      0.490432
O       9.63619     11.80577      2.41547         0.142846      0.097917     -0.007170
O       9.98162     11.69927     14.96175        -1.248075     -0.688844     -0.166380
O       9.96146     11.71949      6.64692        -0.439996      0.366392     -0.395010
O       9.60431     11.79171     10.61682         0.617224     -0.957772     -0.241565
