  # total energy = -7840.24160179 
CRSYTAL
PRIMVEC
    15.6080000000000005    0.0000000000000000    0.0000000000000000
     0.0000000000000000   15.6080000000000005    0.0000000000000000
     0.0000000000000000    0.0000000000000000   16.6239999999999988
PRESSURE
2.26725 2.46659 -3.58027 0.098786 0.473986 0.177248
PRIMCOORD
320 1
Pb       4.21118      4.08461      4.29439        -1.091601     -0.019542     -0.902197
Pb       4.03166      3.99436      0.10096        -1.030004     -0.489940      1.410846
Pb       4.20420      0.15408      4.42590        -1.216649     -0.244024     -0.990036
Pb       3.73275     15.56568      0.34235         0.507393     -0.483672     -0.260634
Pb       0.35260      4.03803      4.31835        -0.258161     -0.123472     -1.000089
Pb       0.05146      3.84910      0.32797         0.877274     -0.121985     -0.770910
Pb      15.30281     15.56626      4.47641         1.335596      0.139091     -1.273044
Pb       0.28207     15.54226      0.05345        -0.320910      0.262975      0.182890
Pb       3.90305      3.68206      8.24454         0.666681     -0.431806      0.779413
Pb       3.83635      0.01411      8.67042         0.498793      0.055385     -0.847502
Pb      15.37951      3.95714      8.14655         0.519724     -0.076790     -0.200243
Pb      15.03908     15.52089      7.87229         2.295798      0.640213      1.739623
Pb       3.89382      3.92238     12.36307         0.434687      0.316287     -0.803456
Pb       3.72058      0.24969     12.47078        -0.034368     -0.215979     -0.418771
Pb       0.16663      3.72289     12.74791        -0.022294     -0.362813     -0.212164
Pb      15.37556     15.41657     12.10894         1.221333      1.753553      0.026551
Pb       3.75438      8.08833      4.25536        -0.164259     -0.532089     -0.889117
Pb       3.73722      8.05400      0.14174        -0.348507     -0.730218     -0.307425
Pb       0.08034      7.75864      4.16270         0.753411      0.277246      0.322760
Pb       0.18400      8.03803      0.05800         0.209227     -0.026650     -0.554923
Pb       3.98775      7.85149      8.87688         1.016484      0.053441     -0.119934
Pb       0.06592      7.62649      8.64393        -0.460871      0.371865     -0.557737
Pb       3.74478      7.50125     12.93278         0.995820      0.624256     -1.183582
Pb       0.17226      7.36810     12.83007         0.421471      0.345941     -0.738578
Pb       3.62678     12.04075      4.74104         1.491754     -0.011932     -1.162034
Pb       3.44425     11.92341      0.23982         0.320709      0.904536     -0.573632
Pb      15.59409     11.64672      4.64514         0.688258     -0.404224     -1.425633
Pb      15.52398     11.88415     16.48009         0.755856     -0.450561     -0.042090
Pb       3.64608     11.62393      8.64384         1.339190     -0.508979     -0.203403
Pb      15.37024     11.32087      8.15375         0.112543      0.197562      0.624292
Pb       3.91272     11.87415     12.69202        -0.136848     -0.544998     -0.161512
Pb      15.27057     11.89030     12.42098         0.356898     -1.514526     -0.261218
Pb       7.77404      4.10884      3.94556         0.020130     -0.931887     -0.037971
Pb       7.80906      3.75913     16.51066        -0.549745      0.187875      0.479492
Pb       8.11052     15.57780      4.08693        -0.375384      1.694819      0.196121
Pb       7.62901     15.59621     16.59385        -0.388219      0.295245      1.184209
Pb       7.66948      4.02145      8.39484        -0.446948     -1.314322      0.028450
Pb       7.71154      0.02406      8.33492        -0.044589      1.811944      0.359041
Pb       7.99255      3.93547     12.57557        -0.025816     -1.102847     -0.614987
Pb       7.81026     15.55567     12.93857         0.593116      1.084484     -1.908444
Pb       7.64740      7.75773      4.03093        -0.379675      0.573963      0.214924
Pb       7.60431      7.90299      0.06846         0.109929      0.415825     -1.131267
Pb       7.84850      7.87140      8.33755        -0.532731      0.278426      0.570105
Pb       7.55607      7.75893     12.81256         0.269263     -0.071978     -0.559543
Pb       7.59897     11.94619      4.16553        -0.055267     -0.780480      0.389698
Pb       7.75236     11.61460      0.00779        -0.613957     -0.323129      0.672081
Pb       7.60895     11.67960      8.35926        -0.790085     -0.114318     -0.049356
Pb       8.15824     11.78927     12.91104        -0.980508     -0.590174     -0.881500
Pb      11.83885      3.78676      3.97193         0.128036      1.038532      0.352299
Pb      12.03966      3.78766     16.60907         0.371339      0.296176      0.242499
Pb      11.97126     15.16782      4.34868        -1.319590      1.518675     -0.829458
Pb      12.38585     15.52583      0.46365        -1.055787      1.007052     -1.156994
Pb      11.63066      4.15005      8.55700        -0.219784     -0.226991     -0.829083
Pb      11.58182      0.27520      8.10199        -1.241826      0.185275     -0.178262
Pb      11.75959      3.61083     12.72991        -0.583276      0.115198     -0.406241
Pb      11.63349     15.21803     12.05204        -0.784672      1.377731      0.671203
Pb      11.36156      7.49723      4.25777        -0.144066     -0.256719     -0.498950
Pb      12.16901      7.75214      0.09012        -0.935504      0.415972     -0.521721
Pb      11.95751      7.55623      8.83548        -1.383105      0.547564     -1.315662
Pb      11.53972      7.61114     12.68804        -0.239003      0.215720      0.031164
Pb      11.52176     11.52725      4.21253        -0.517411      0.176209     -0.379636
Pb      11.83836     11.55464     16.54621         0.055446      0.338060      0.070924
Pb      11.31975     11.31220      8.25517         0.231387      0.487836     -0.002216
Pb      11.44193     11.47840     12.16342         0.021913     -0.085638      0.300341
Ti       2.12615      1.90936      2.12930        -1.895180      1.867559      1.603102
Ti       1.93860      1.85471     14.65807        -1.080466      0.746354      0.063718
Ti       1.72741     13.85869      2.61852         1.794912      0.471235     -2.189425
Ti       1.92767     13.75403     14.10532         0.877234      0.217538     -0.533132
Ti      13.94751      2.05224      2.23205         1.064962      0.560645     -0.660604
Ti      13.62171      1.65482     14.32231         2.284943      0.643719      0.417314
Ti      13.62220     13.37652      2.06939         2.135716      1.783913      1.254216
Ti      13.53240     13.56823     14.46105         0.801661      0.771501      3.104652
Ti       1.86851      2.03136      6.17752         1.158725     -1.559727     -0.230752
Ti       1.86844     13.75093      6.43230         1.480322      1.552959      1.024562
Ti      13.57754      2.07848      6.09718        -0.417647      1.895766     -0.190610
Ti      13.58025     13.39569      6.24000        -0.986207      0.715790      0.131270
Ti       1.86942      1.92123     10.26288         0.206983      0.485824     -1.170661
Ti       1.79019     13.66265     10.28455         1.713410     -1.352732     -0.668870
Ti      13.63101      1.95418     10.24932         0.135972      0.491857      0.496486
Ti      13.46783     13.61118     10.15913         0.033334     -1.420742     -2.759193
Ti       2.01410      5.86857      2.02123         1.475467     -0.768575      0.167839
Ti       2.07272      5.53832     14.66997        -1.746877      2.491360      0.888271
Ti      13.66059      5.88511      2.00111        -0.586030     -3.949559      0.983483
Ti      13.67861      5.70918     14.42418         0.144949     -0.221763     -0.030956
Ti       2.06694      5.95169      6.35688         1.554893     -3.676845     -0.417209
Ti      13.37503      5.92282      6.18561         0.473796     -3.556071     -1.021110
Ti       2.03762      5.74179     10.08736         1.347519      0.422323      2.954158
Ti      13.84410      5.72208     10.39872        -0.139478     -0.170832      1.688198
Ti       1.85167      9.97064      2.03665         0.096842     -0.817251      1.817403
Ti       1.87218      9.88346     14.37401         1.568383      0.182708      0.632124
Ti      13.65295      9.77733      2.23165        -0.001836     -1.153869     -0.298317
Ti      13.73741      9.64201     14.31342        -0.236513     -0.172913      0.012980
Ti       1.99813      9.71628      6.51083        -1.978535     -0.351305     -0.207772
Ti      13.42759      9.42888      6.05104         1.704930      1.776110      1.365536
Ti       1.68062      9.74215     10.55348         2.049139      0.470651      0.816667
Ti      13.50998      9.65895     10.36937         1.301147      0.269155      0.395312
Ti       6.01372      1.96119      2.01198        -1.063631      0.488425      0.570978
Ti       5.75621      1.86362     14.47870        -0.208703      0.647640      0.641767
Ti       5.90626     13.73148      2.11875        -2.064968      0.587692      0.479137
Ti       5.98427     13.68003     14.53793        -3.189132     -2.576100      0.961140
Ti       5.83680      2.16538      6.07904         2.312301      0.368430      0.807144
Ti       6.02152     13.94237      6.33665        -1.939612     -1.705017      0.756601
Ti       5.88059      1.77596     10.55466         1.341866      0.678426     -1.938129
Ti       5.83301     13.48788     10.39832         1.648499      1.834511     -0.400813
Ti       5.83425      6.04000      1.93637        -2.529149     -1.918031     -0.193719
Ti       5.83941      5.62861     14.70125         0.348279      1.929220     -2.123809
Ti       5.79158      6.06167      6.28700        -1.429548     -0.039442      0.421055
Ti       6.05977      5.80793     10.47353        -2.063693      0.653211     -0.023176
Ti       5.62184      9.94228      1.86327         0.955228      0.574610      0.706800
Ti       5.86730      9.78060     14.44095        -1.487259     -0.178199      0.072301
Ti       5.75518      9.93895      6.01135         0.086813     -0.158550      1.473249
Ti       5.86176      9.80958     10.56098        -0.388938     -1.235550     -1.009835
Ti       9.95956      2.07832      2.11164        -1.088875     -1.043242      1.329595
Ti       9.77513      1.89069     14.93500         0.553763      0.995081     -1.530571
Ti       9.76553     13.61133      2.11615         0.107896      0.017958     -0.460601
Ti       9.80650     13.75534     14.91579         1.014004     -0.038863      0.238156
Ti       9.70822      2.36227      6.17265        -1.168577     -2.882060      0.561644
Ti       9.76611     13.76145      6.14053        -0.607976      0.045076      0.913964
Ti       9.79739      1.85007     10.32282        -3.080635      0.964709      1.344607
Ti       9.58716     13.66259     10.03659        -0.365801     -0.989449     -2.078513
Ti       9.54766      5.93889      1.71982         2.316718     -1.431204     -0.156899
Ti       9.75944      5.80594     14.52600         0.351340      1.546652      0.222953
Ti       9.39731      6.00252      6.23522         1.123343     -0.815618     -0.021558
Ti       9.82075      5.73840     10.44567        -1.258542      0.559625     -0.600217
Ti       9.70443      9.62916      1.92694         0.184919      2.070106      1.205865
Ti       9.95196      9.90248     14.76470        -0.706446     -4.050024     -2.146723
Ti       9.41742      9.88751      6.00436         1.527127     -1.673908     -0.142237
Ti       9.61747      9.58363     10.30354        -1.392570     -0.329057      0.524310
O       1.95312      1.80044     16.61120        -0.399191     -0.871359      0.988065
O       1.96302      1.98308     12.67524        -0.224882      0.682739     -1.187610
O       1.97137     14.05355      0.56523         0.579589     -1.661678     -1.498625
O       2.30296     13.85558     12.18430        -1.509725     -0.742769      2.598745
O      13.89516      2.00031      0.25911        -1.367968      0.728851      0.861313
O      13.80848      1.81163     12.43946        -0.302263     -0.679130      0.020988
O      13.75584     13.52494      0.20378        -0.641000      0.052298     -0.060851
O      13.75527     13.93134     12.76928        -1.373221     -0.758721     -2.448385
O       1.92795      2.11303      4.04689         0.287577     -0.364881      1.925526
O       1.74936     14.01678      4.47046         0.056308     -1.574386      0.106245
O      13.80864      2.04648      4.31487        -0.539197     -0.249445     -0.664146
O      13.67352     13.54261      4.21308        -0.491783      0.216184      0.109983
O       2.04322      2.01201      8.23286         0.084769     -0.297090      2.109827
O       2.07514     13.20184      8.27941        -1.244313      1.538853      0.740194
O      13.69553      1.94001      8.39468        -0.453761     -0.237790     -0.615332
O      13.57297     13.55142      8.29027        -0.514022     -0.103636     -0.027083
O       1.99974      5.71090      0.02609        -0.274579      0.880980     -0.151219
O       1.93293      5.62048     12.67532        -0.031989      0.135245      0.237224
O      13.67066      5.41292      0.07551         0.000343      1.410827     -0.124577
O      13.69870      5.83505     12.23981         0.394359     -0.167938      2.038304
O       2.33194      5.74795      4.08640        -0.458972      0.777563      0.861127
O      13.31815      5.91561      4.23148         0.669530      0.655719      0.491018
O       1.75812      5.81127      8.38415         0.199697     -0.194563     -2.755263
O      13.72864      5.71599      8.27122        -0.298624      0.434852      0.629784
O       1.77553     10.22511     16.53311         0.917426     -1.631599      0.486236
O       1.72254      9.90111     12.51936        -0.256747     -0.746616     -0.453630
O      13.65883      9.61689     16.46038        -0.487585      0.044167      0.916498
O      13.92605      9.81766     12.34691        -0.426355     -0.129424      1.267845
O       1.81949      9.48388      4.08717        -0.526231      0.457846      0.225435
O      13.81163      9.71072      4.16641        -0.175872     -0.665127     -0.264206
O       1.81855     10.03326      8.31009         0.192270     -0.612947      1.021628
O      13.41317      9.78157      8.39986         0.346707      0.246087     -0.844333
O       5.89215      1.95101     16.57467         0.529734     -0.084532      0.600706
O       5.76944      1.77438     12.48915         0.666099      0.396126      2.354558
O       5.75838     14.06920      0.39678        -0.084888     -0.886018     -1.215521
O       6.27495     13.54848     12.82505        -0.281404      0.048975     -1.220851
O       5.93655      2.15101      4.11767        -0.664186     -0.118512      0.856799
O       5.79459     13.54456      4.56248         0.811046      0.511384     -1.562430
O       5.85075      1.98800      8.46520        -0.856290     -0.604137      0.393858
O       6.07200     13.75417      8.51417        -0.988073     -0.211674     -1.218104
O       5.99044      5.68628     16.57378        -0.234320      0.932386      0.604552
O       5.45521      5.84439     12.53596         1.095076     -0.311460      0.100807
O       5.75674      6.00471      4.37378         0.167829     -0.377184     -0.912375
O       6.32689      6.17336      8.56976        -1.370437     -1.530948     -0.587767
O       5.70455      9.60431      0.03674        -0.151636      0.294534      0.619330
O       5.81507      9.84680     12.58639         0.672585     -0.060729      0.431272
O       6.08037      9.93956      4.23304        -1.561073      0.031331      0.374992
O       6.02204      9.90830      8.69923        -0.726304     -0.452023     -0.587051
O       9.80289      2.09944      0.18480         0.051033     -0.094329     -0.870107
O       9.48360      1.94598     12.24676         0.809206     -0.842948     -0.261555
O       9.93482     13.46379      0.19840        -1.654046     -0.099217      0.033790
O       9.78649     13.68348     13.04883        -0.490573      0.286943     -0.749709
O       9.77125      2.13674      4.27752        -0.849789      0.310307     -1.347745
O       9.72873     13.81427      4.17538        -0.023890     -1.369039     -1.005307
O       9.71127      1.77876      8.16027         1.536510      0.579353     -0.190953
O       9.81131     13.38472      8.15624         0.076110      1.081185      1.021430
O       9.47021      5.94757     16.54282         0.233827     -0.876186      0.157511
O       9.75811      5.97775     12.68720        -0.015916     -0.923478     -2.068870
O       9.41541      5.96520      4.28610         0.763114      0.103757     -0.257271
O       9.79575      5.90616      8.46727        -0.178502     -0.689667      0.540319
O       9.91761      9.61301     16.59847         0.256102      1.236823      0.848089
O       9.71185      9.93846     12.55433         0.334463     -0.324682     -0.410205
O       9.69995      9.64670      4.12964        -0.369643     -0.503824      0.181128
O       9.48533      9.76803      8.35931         1.521649      0.418820     -0.558271
O       3.89736      1.76148      2.08501         1.877063     -0.863384     -0.195671
O       3.82799      1.89975     14.69651         2.312651     -0.220119     -0.681116
O       3.75743     14.06334      2.63626         0.652248     -0.746202     -0.871840
O       3.90564     13.61522     14.49112         0.924402      0.666783      0.151868
O       0.20565      2.42713      2.23427        -2.282794     -0.784577     -0.448638
O      15.47014      1.97474     14.65035         1.061931      0.459049     -0.613570
O      15.54029     13.50994      2.16700        -2.208060     -0.570581      0.435788
O       0.09860     13.58318     14.48104         0.323190      0.101922      0.208930
O       3.87161      2.14407      6.07077         0.020064      0.266534      0.431077
O       3.88203     13.63929      6.36089        -1.071484      0.105639     -0.203709
O      15.56525      1.70100      6.16269        -0.607846      0.705059      0.650412
O      15.47283     13.51507      6.25467         0.440828      1.511637      0.515314
O       3.95159      1.82774     10.58544        -0.946044     -0.017662     -0.622004
O       4.09298     13.60254     10.24960        -2.043340     -0.157577      0.164599
O       0.09344      1.77141     10.26752        -0.764109      0.158773      0.615441
O       0.08536     13.93063      9.97882        -2.094615     -1.258571      1.372441
O       3.89807      5.88363      1.72287         2.439370      0.505249     -0.006708
O       3.87294      5.80348     14.55134         1.124028     -0.486398      0.976311
O       0.19696      5.68155      2.05536        -2.101389      0.527635      0.337196
O      15.55316      5.76961     14.54080        -0.378968     -0.128117     -0.171308
O       4.12531      5.34580      6.74073        -1.429539      1.126439     -1.316989
O       0.36071      5.92507      6.11447        -3.018994      0.904420     -0.442542
O       3.93688      5.72588     10.07023        -0.287067      0.262804      0.369374
O       0.04635      5.76826     10.22969        -0.555001      0.413586      0.495594
O       3.76838      9.95387      2.28977         0.693446     -0.554300     -1.210173
O       3.85653      9.91357     14.57503        -0.456742     -0.819361     -0.280312
O      15.54220      9.81252      1.76204        -1.405239     -0.556230      1.073711
O      15.60695      9.73681     14.60463         0.384170     -0.088595      0.013861
O       3.71700     10.05033      6.47330         3.739401     -0.094476     -1.370315
O       0.16965      9.34518      6.27687        -1.946656      0.535420     -0.333498
O       3.79144      9.73160     10.39205        -0.091566      0.567048      0.184666
O      15.46581      9.83373     10.07523         1.503285      0.161433      0.683769
O       7.74864      2.04204      2.18038         2.204751      1.026330     -0.557814
O       7.73438      1.91371     14.48472         1.073014      0.063730      0.748109
O       7.69435     13.16506      2.24424         1.773101      1.633958     -0.564286
O       7.74318     13.35023     15.19427         2.125363      1.444845     -0.944391
O       7.66919      2.05329      6.31465         1.727821     -1.282283     -0.397853
O       7.84282     13.70871      6.38050         0.224133      0.419232     -0.570532
O       7.92801      1.94619     10.08096        -1.141808     -0.563552      0.616530
O       7.77779     13.84262     10.17939         3.043390     -0.919118      0.927092
O       7.71450      5.83230      2.09142        -0.420576      1.219395      0.200784
O       7.73705      5.90722     14.52025        -0.094721     -0.295169     -0.344076
O       7.61533      6.40468      6.28166         1.562078     -0.348918      0.088225
O       7.87739      5.93314     10.61192         1.230319     -0.467574      0.805133
O       7.56051      9.74485      2.04755         1.924548     -0.087666     -0.597488
O       7.90610      9.57422     14.75183         0.066062      0.589724     -0.067859
O       7.70132      9.47509      6.24716        -0.523046      0.461264     -0.099044
O       7.76869      9.47053     10.39416         1.559309      0.236444      1.295371
O      11.80380      1.90958      2.25157        -1.541713      1.027601     -0.501694
O      11.67385      1.61482     14.23244        -0.779888      1.156044      1.158606
O      11.60334     13.72528      1.92157         1.890231      0.174905      1.738800
O      11.71464     13.65033     14.92374         1.018886      0.332728     -0.587929
O      11.64583      2.27133      6.06342         0.867091     -0.463480      1.081720
O      11.62750     13.39297      6.01817         1.423519      0.132926      0.397272
O      11.73574      2.00340     10.38839         0.826542     -0.806368     -0.192314
O      11.63053     13.69159     10.29311         0.275830     -0.013973      0.800933
O      11.66737      5.67795      1.91654        -0.317257      0.953964     -0.093310
O      11.72392      5.56105     14.42850        -0.273695      0.482434      0.636266
O      11.67205      5.56499      6.29644        -1.234449      0.816488      0.181917
O      11.82523      5.82881     10.41929        -0.892283     -0.476413     -0.393391
O      11.76811      9.39900      2.12583         0.021233      0.348317     -0.272166
O      11.90849      9.92907     14.32271        -1.338167     -0.643434      0.466431
O      11.73302      9.93856      5.97618        -0.522506     -0.931778      0.544185
O      11.67861      9.54793     10.41133        -0.545994      0.938605      0.448751
O       2.31953      3.87902      2.01378        -0.183369     -0.190507     -0.448055
O       1.95658      3.81795     14.91792        -0.311078     -1.449736     -0.990846
O       1.42802      0.03820      2.35053         0.330576      1.314840      0.012896
O       1.92514      0.06640     14.29004        -0.183573     -2.217578      1.057325
O      13.71041      3.96739      2.51427        -0.426535     -0.450970     -0.917779
O      13.64543      3.88744     14.35185        -0.594721     -1.442240      0.078038
O      13.75967      0.19074      2.34262         0.094151     -1.700991     -0.204039
O      13.94892     15.58584     14.94373        -1.537262     -1.364710     -0.768934
O       1.71847      3.77861      6.32815         0.261235      1.292842      0.186206
O       1.86346      0.00867      6.52849         0.176236     -1.306570      0.157411
O      13.74742      4.00207      6.23572         1.013279     -1.240961      0.321294
O      13.42722      0.08198      6.28389        -0.492878     -0.988769     -0.495201
O       1.94568      4.00084     10.41427         0.009227     -3.657297      0.463957
O       2.03577     15.52498     10.39294         0.764630      1.966574     -0.538484
O      13.71988      3.80399     10.36927         0.199132     -0.265184     -0.127173
O      13.66197     15.44811     10.40964        -0.478143      1.131943      0.542185
O       2.12060      7.85654      2.09935        -0.926631     -0.148561     -1.318071
O       1.83306      7.67084     14.61609         0.183328      1.741655      0.154666
O      13.74568      7.59276      2.15083         0.494854      3.572819     -0.447127
O      13.47874      7.68914     14.46340         0.562773      0.380194     -0.021956
O       2.52126      7.54150      6.61858        -0.038733      4.801932     -0.719345
O      13.61371      7.69846      6.46248        -0.389083      1.887642     -0.419297
O       1.90492      7.75431     10.47493        -0.671574      1.241011     -0.439534
O      13.76877      7.80910     10.37247        -0.023934     -0.751832     -0.525312
O       1.81127     11.73206      2.13092         0.453363      1.341281      0.678937
O       2.17087     11.88226     14.36720        -1.533617     -1.007553     -0.020200
O      13.33125     11.63513      2.24801         0.276287     -1.597429     -0.462943
O      13.84732     11.69304     14.56217        -0.483296      0.972606     -0.219285
O       1.78803     11.65549      6.08622        -0.643511      0.063817      0.200788
O      13.85633     11.68882      6.19473        -0.911797     -3.205697      0.166885
O       1.96301     11.76551     10.73227        -0.574687     -0.654999     -1.043120
O      13.43136     11.74706     10.65052         1.028133      0.820813     -0.430397
O       5.77198      4.02147      2.06238         0.037011     -0.431188      0.236229
O       5.95120      3.82079     14.51128        -0.474144     -0.508413      0.041048
O       6.25573      0.07547      2.27157        -0.921954     -0.737828      0.549026
O       6.12654     15.45863     14.73811        -0.306291      2.320242     -0.395095
O       6.23210      4.02547      6.43848        -0.893802      0.178622     -0.579470
O       5.65849      0.17404      6.21581         1.068385     -0.901978      0.757169
O       5.91921      3.85180     10.65754         0.154000      0.152021     -0.154935
O       5.98267     15.47626     10.75092        -0.480154      1.140418     -0.380533
O       5.59455      7.85423      2.15651         0.622786      0.164123     -0.252977
O       5.68921      7.79454     14.39295         0.573438     -0.221409      0.918216
O       5.40030      7.91873      6.24903         0.408669      0.774049      0.163866
O       5.75414      7.72251     10.57350        -0.137027      1.127352      0.487328
O       5.61981     11.85092      1.90706        -0.264080     -1.256377     -0.027647
O       6.00816     11.58492     14.74918        -0.027539      0.934422      0.322761
O       5.90794     11.79218      6.50032         0.226069     -1.814754     -0.652719
O       6.27597     11.71070     10.65495        -0.602128     -0.208144      0.089612
O       9.53477      4.07878      2.02151         0.718785     -2.003987      0.367140
O       9.70651      3.78354     14.37271         0.146904     -0.398323      1.047207
O       9.54873      0.04518      2.28758         0.481442     -0.170985     -0.921275
O       9.56931      0.10196     15.02635         0.030174     -2.414469     -0.684670
O       9.39399      4.06668      6.42514         0.116470      0.785434     -0.104955
O       9.90346     15.54551      6.09141         0.347112      0.460930      0.716754
O       9.71629      3.83338     10.47885         0.830981      1.852223     -0.473573
O       9.79035     15.53836     10.13444         0.875499     -0.611863      0.606319
O       9.54745      7.84559      1.67807         0.092879     -0.770383      1.689612
O       9.96312      7.71030     14.53860         0.508713      0.563258      0.189193
O       9.90536      7.67011      6.19556         0.676359      2.873703      0.316207
O       9.90386      7.72662     10.35930        -0.046899      0.342779      0.460370
O       9.94490     11.55653      2.27936        -0.340355      0.231006     -0.666747
O      10.09227     11.63671     14.63825        -1.441493      1.991071      0.927827
O       9.59357     11.68758      6.00876        -0.044643     -0.959064      0.136696
O       9.91571     11.63559     10.20872        -0.387848      0.516246      1.323160
