  # total energy = -7842.92772552 
CRSYTAL
PRIMVEC
    15.6080000000000005    0.0000000000000000    0.0000000000000000
     0.0000000000000000   15.6080000000000005    0.0000000000000000
     0.0000000000000000    0.0000000000000000   16.6239999999999988
PRESSURE
2.06952 2.21745 -0.748423 0.24231 0.399391 0.301858
PRIMCOORD
320 1
Pb       3.44900      3.56979      4.19923         0.995825      0.520305     -0.807364
Pb       3.70765      3.88047      0.02600         0.188766     -0.961817      0.547646
Pb       3.60227     15.44203      3.94500         0.755584      0.201893     -0.247324
Pb       4.00011      0.01571     16.50874        -1.063879      0.358882      0.548463
Pb      15.29783      3.88267      4.09278         0.697517      0.763439     -0.194545
Pb       0.10178      3.92993     16.31350        -0.465459     -0.506419      0.838605
Pb       0.14973     15.49742      4.05123         0.060884     -0.416646     -0.568817
Pb      15.37183     15.53163      0.12373         1.588747      0.734925     -0.216542
Pb       3.90477      4.08956      8.28080         0.150849      0.134562     -0.316050
Pb       4.02024     15.56811      8.04055         0.392016     -0.149277      0.418790
Pb       0.24294      3.74170      8.65853        -0.334992      0.029434     -0.452656
Pb       0.35373      0.04506      8.74558        -1.341999      0.430217      0.155267
Pb       3.97942      3.91749     12.70985        -0.818769     -0.814195     -0.510384
Pb       3.84186     15.41889     12.71492        -0.018809     -0.036022      0.065176
Pb      15.52229      4.12321     12.38541         0.157007     -0.901337     -0.240449
Pb      15.47935     15.59305     12.99201         0.496287     -0.134892     -0.709317
Pb       3.90625      7.32004      4.20701         0.261502      1.167636     -0.415175
Pb       3.89123      7.60844     16.57524         0.206746      0.367507      0.143431
Pb      15.49401      7.56828      4.56685        -0.327544      0.648473     -0.999337
Pb      15.37629      7.76196      0.05496         0.585786      0.897085     -0.023904
Pb       3.85535      7.65069      8.05073        -0.386084     -0.032797     -0.466604
Pb      15.52355      7.85355      8.36442         0.103322      0.499263     -0.935239
Pb       4.07874      7.85676     12.14310         0.207047      0.115042     -0.146477
Pb      15.32845      7.98002     12.53002         0.225740      0.276577     -0.186350
Pb       4.15012     11.55777      3.93965        -0.830554     -0.668420      0.962958
Pb       4.08932     11.42780     16.39215        -1.184548     -0.179281      0.431914
Pb      15.46486     11.90692      4.03896         0.120465     -0.442139     -0.257999
Pb       0.03013     11.57403      0.17945         0.960862     -0.655019     -0.660282
Pb       4.07536     11.51094      8.05556        -1.482573      0.226350      0.176165
Pb       0.12219     11.77534      8.76908         0.161325     -0.611834     -0.776911
Pb       3.90979     11.42444     12.34935        -1.017402      0.796859     -0.242810
Pb       0.04713     11.67225     12.66370         0.543320     -0.595925     -0.214016
Pb       7.54310      3.76125      4.33216         0.802304      1.603857     -0.321598
Pb       7.73048      4.16701      0.21358         0.979804     -1.760600      0.087985
Pb       7.46362     15.50348      4.36170         0.669555      0.085353     -0.743943
Pb       7.80451     15.51686      0.17620        -0.514205      1.158879      0.333088
Pb       8.06792      3.78088      8.56963        -0.443326      0.571329     -0.834702
Pb       7.73154      0.01007      8.24718         0.919997     -0.531103      0.153118
Pb       7.66441      3.70967     12.62601         0.721422      1.227242     -0.827784
Pb       7.84702      0.15483     12.32792        -1.234596     -0.438877     -0.813687
Pb       7.99748      7.83166      4.27472        -0.353749     -1.559271     -0.254480
Pb       7.80504      7.54861     16.59720        -0.272457      0.851616      0.073258
Pb       7.68382      7.71688      8.17337         0.370375     -1.618634     -0.232123
Pb       7.96362      7.67400     12.21077        -0.406726     -0.542912     -0.785602
Pb       7.98912     11.52684      4.27980        -0.944425      1.549055      0.582922
Pb       7.95137     11.72617      0.05476        -0.479428     -0.659981     -0.072369
Pb       8.31294     11.67245      8.43598        -2.121570      1.085827     -0.431931
Pb       7.33406     11.35703     12.33056         0.217759      0.675045     -0.486279
Pb      11.52604      3.78148      4.39414        -0.002407      1.217051     -0.400526
Pb      11.52165      3.85048      0.13467        -0.538199      0.207347      0.150295
Pb      11.60102      0.18052      4.12915        -0.903333     -0.240997      0.100292
Pb      11.40533     15.58934     16.51728        -0.387171      0.959924      0.700673
Pb      11.62827      3.47787      8.31375         1.016033      2.045329     -0.311662
Pb      11.79082     15.32012      8.60179        -0.375659      1.401415      0.083128
Pb      11.68204      4.14632     12.42896        -0.320657     -0.050537     -0.897258
Pb      11.87979      0.02545     12.99305        -0.389642     -0.041216     -0.980499
Pb      11.84482      8.06108      4.00724        -0.953992     -0.395096      1.331957
Pb      11.32435      7.97714     16.61432         0.479711      0.123273     -0.280992
Pb      11.48721      7.77867      8.10614         1.176316     -0.493628      0.321438
Pb      11.64428      7.97998     12.48706        -0.231833     -0.061766     -0.614812
Pb      11.64773     12.17349      4.31140         0.121479     -0.565043     -0.586695
Pb      11.49698     11.92561      0.16138        -0.011912     -2.113935     -0.133431
Pb      11.91438     12.10325      8.63081         0.374627     -1.078479     -0.305007
Pb      12.15981     12.07014     12.83816        -2.485192     -2.543526     -2.028398
Ti       1.66363      1.93096      2.19238         2.031281     -0.267631     -1.373116
Ti       1.96580      1.83991     14.57010         0.352263     -0.031642      0.901932
Ti       2.04256     13.43973      1.93370        -0.846703      2.380214     -1.020786
Ti       1.89969     13.63274     14.59643         0.072825     -0.006919      2.644350
Ti      13.38171      2.08327      2.12612         0.660290      0.357787      0.678763
Ti      13.66156      2.11754     14.62553        -0.045492     -1.198343      0.660495
Ti      13.55510     13.79622      1.99245         0.636774     -1.852196      2.305980
Ti      13.57752     13.56819     14.96342         1.625304      0.686757     -3.189997
Ti       1.98619      1.90628      6.56889        -0.706879      0.708855     -0.278874
Ti       1.79245     13.71452      6.46581         1.910812     -3.094567     -2.213672
Ti      13.83589      1.96356      5.94658        -0.062662      0.217794      3.398881
Ti      13.65677     13.75982      6.26065        -0.186747      0.351258      0.139783
Ti       2.06995      1.88547     10.74634        -0.993530      1.020934      0.325540
Ti       2.22141     13.70409     10.40637        -0.705432     -1.400614      2.236062
Ti      13.58402      2.16122     10.46079         1.530154     -1.747282      0.956403
Ti      13.94172     13.79447     10.70310        -0.632632      0.019143     -0.601466
Ti       1.81678      5.75906      1.96199         0.796282      0.182250      1.823148
Ti       1.95200      5.70767     14.49676         0.199943      1.195083     -0.665055
Ti      13.50549      6.06373      2.04096         0.233935     -2.510295      1.672376
Ti      13.49491      5.82487     14.62178         0.093365      0.907390      0.968600
Ti       1.77869      5.70075      6.17103         1.213945      3.041227     -0.370495
Ti      13.64705      5.86737      6.35437        -1.695929     -0.505119     -1.525165
Ti       1.93895      5.79607     10.63051         0.297991      0.119564     -1.230063
Ti      13.60646      5.87989     10.12025        -1.753269      0.529076      1.077711
Ti       1.77025      9.61010      2.11219         1.659465     -0.010079     -0.172997
Ti       1.97999      9.46805     14.60717        -1.063738      1.563700      0.924841
Ti      13.49275      9.81525      2.05296         1.225410      2.195973     -1.128953
Ti      13.60626      9.84618     14.71929         0.796012     -1.537787     -0.033289
Ti       1.75178      9.70614      6.19198         0.318990      0.295374      0.320268
Ti      13.52620      9.92665      6.33810         2.189423     -1.426640      1.501680
Ti       1.86213      9.61773     10.38982         1.796718      0.991578     -0.094326
Ti      13.50962      9.75292     10.32468         1.068463      1.016309     -0.182592
Ti       5.70576      2.07315      2.05704        -0.659166     -1.493111      0.267894
Ti       6.09334      1.77197     14.76670        -0.198100      1.921256      0.226055
Ti       5.81474     13.45984      2.10066         0.896516      2.518963      0.658353
Ti       5.80790     13.59299     14.59659        -0.569786     -0.344583     -1.130634
Ti       5.90874      2.01759      6.33346         0.018492      0.449789     -0.198271
Ti       5.73514     13.60983      6.24754         0.143638     -2.066201     -0.490338
Ti       5.82314      2.06494     10.17039        -0.399967     -2.362424     -0.007073
Ti       5.90112     13.82721     10.32676         0.813257     -0.836711      0.622953
Ti       5.82051      5.86926      2.05788         1.015973      0.529787      3.533400
Ti       5.92168      5.61906     14.41701         0.182705      2.259968     -0.475787
Ti       5.87175      5.75988      6.14742         1.074632      1.476317     -1.460509
Ti       5.94952      5.58639     10.42707         1.640102      2.873346     -1.503991
Ti       5.99658      9.61858      2.14742        -1.630952     -0.184331     -0.885894
Ti       5.77202      9.56719     14.45117         0.238441     -1.154809     -0.256629
Ti       5.78387      9.55857      6.14588        -0.193917      0.334966     -0.013961
Ti       5.89579      9.67805      9.96300        -1.256947     -0.515737      3.995757
Ti       9.47811      2.26709      2.41188        -0.048505     -0.323224     -1.483265
Ti       9.81531      2.13815     14.29907        -1.308415      0.730561      4.996648
Ti       9.57387     13.89674      2.17698         0.003469      0.106602      1.607823
Ti       9.41897     13.64947     14.38192         2.103058     -0.789150      1.196439
Ti       9.81672      1.90335      6.54555        -2.107812     -0.605910     -1.250003
Ti       9.73525     13.57272      6.48975        -1.305735      1.880960     -1.964627
Ti       9.82153      1.87382     10.54364        -0.222780     -0.521556     -1.222356
Ti       9.75954     13.52137     10.72970         0.401846      1.982126     -0.771755
Ti       9.86797      6.03043      2.15164        -3.540026      0.002327      2.586867
Ti       9.77898      5.89086     14.42626        -0.388277      0.274030      0.403153
Ti       9.84866      5.74164      6.11981        -1.912640      0.482006      1.186999
Ti       9.87772      5.82485     10.15238        -2.328691     -0.440759      0.661044
Ti       9.61732      9.93210      2.34210         2.650034     -1.145835     -0.683003
Ti       9.56202      9.80127     14.47476         0.762391     -0.389853     -1.089222
Ti       9.71699      9.69184      6.37786         0.594373     -1.901945     -1.412116
Ti       9.81656      9.80773     10.35503         0.217656     -0.638320      0.950244
O       2.19621      1.92223      0.36315        -1.104368      0.295656     -0.950832
O       2.08785      1.87450     12.75134        -0.581414     -0.559999     -1.594579
O       1.83740     13.57298      0.12823         0.541985      0.215862      1.251456
O       1.99385     13.91194     12.87275        -0.383414      0.458463     -2.788651
O      13.55049      2.07599      0.37240        -0.355880     -0.427125     -1.319385
O      13.82729      2.31979     12.89988        -0.362218     -1.182093     -0.931449
O      13.16116     13.56798      0.03598         0.673304      0.777322      3.627631
O      13.88782     13.37624     12.66976         0.566938      1.730303     -1.105695
O       1.79999      1.92671      4.24213         0.335707     -0.915401      0.888812
O       1.84584     13.58427      4.49560        -0.857482      1.023614      1.099966
O      13.80326      1.72279      4.21288        -0.596010      0.096628     -0.458439
O      13.65000     13.62745      4.31067         0.537424      0.740238      1.466374
O       1.85412      2.01661      8.51713         0.285409     -0.090083     -0.230291
O       2.21681     13.78176      8.66574        -0.487163      0.243932     -0.777574
O      13.77710      2.08286      8.72285        -0.678401      0.166334     -0.218091
O      13.49334     13.83758      8.53867         0.468248     -0.985311      0.618774
O       1.96504      5.76479      0.08041        -0.732649     -0.411037      0.713909
O       2.08038      5.68424     12.66725         0.250398      0.327038     -0.477054
O      13.60361      5.82672      0.27732         1.319029      0.339451     -0.297202
O      13.09960      5.93361     12.86988         0.980249      0.029415      1.045317
O       2.02473      6.05712      4.36292        -1.561694     -1.323103      0.923693
O      13.56469      5.99983      4.33033        -0.276808      0.298697      0.907277
O       2.02357      5.56456      8.83801        -0.222063      0.527596     -0.103613
O      13.64288      5.85530      8.36501        -0.180632     -0.351988      0.618984
O       1.99279      9.88288      0.01116        -0.250895     -0.280790      1.592481
O       2.09692      9.61347     12.81384        -0.374540      0.309962     -0.803941
O      13.62983      9.98119      0.15050        -0.383091     -0.739717      0.414066
O      14.03290      9.90808     12.72096        -1.179877     -0.453936      0.817054
O       1.51620      9.53117      4.34599         0.745142      0.978342      1.256919
O      13.67489      9.62148      4.61148         0.125774      0.111269     -2.526768
O       2.02980      9.80085      8.59672        -0.497475     -0.710463      0.904493
O      13.69806      9.71913      8.50811        -0.203666      0.170166      1.857399
O       5.79193      2.13260      0.22771        -0.643259     -0.166473     -0.841995
O       6.17908      2.01844     12.92246        -0.789613     -1.490530     -0.767501
O       5.84549     13.66318      0.31242         0.254404     -0.705026     -0.869614
O       6.23865     13.99685     12.80447        -1.261809     -0.697765      0.890014
O       5.99181      2.08338      4.50864        -1.006525     -0.298785     -0.128927
O       5.80913     13.41744      4.44135        -0.097077      1.035293      0.423409
O       5.83913      2.12531      8.39101        -0.237836     -0.417071      0.783099
O       5.95266     13.86236      8.58383        -0.982902     -0.731706     -0.724747
O       5.63287      6.02315      0.29092         0.685758     -0.822328     -1.961890
O       5.93419      5.37625     12.51831        -0.597964      1.222267      1.154000
O       5.77123      5.73926      4.25429        -0.637823     -0.004121      1.036505
O       6.02649      5.93370      8.49573         0.021452     -0.240796      0.225426
O       5.93387      9.70327      0.26763        -0.067502      0.624597      0.505183
O       5.47627      9.80844     12.60207         2.389427     -1.200542      1.697520
O       6.01360      9.88980      4.40686        -0.739406      0.046927     -1.250856
O       5.94298      9.58702      8.21273        -0.268640     -0.180798      0.433231
O       9.70899      2.38125      0.32965        -0.037801     -0.423450      0.597810
O       9.75034      1.81992     12.62279        -0.336753      0.071832     -2.431577
O       9.93702     13.48783      0.29609        -1.352713      2.275659      0.638841
O       9.41046     13.36391     12.63281         0.365532      0.959995      0.642106
O       9.57616      1.87174      4.30657        -0.045209      0.227024      0.503788
O       9.51722     13.70287      4.57574         1.179888     -0.108128     -0.282497
O       9.79720      2.14276      8.49619         0.322655     -1.579461     -0.899206
O       9.74312     13.53396      8.42349         1.529933     -0.343476      0.388454
O       9.54592      5.74328      0.40506        -0.338076      0.948517     -1.981431
O      10.09750      6.05334     12.67895        -0.023178     -0.460302      0.570023
O       9.95683      6.06040      4.40482         0.532216     -0.603587     -1.536361
O       9.73649      5.98729      8.38135        -0.749247     -0.249200      0.138849
O       9.58012      9.42167      0.53850        -0.241322      1.384143     -1.546353
O       9.69231      9.72213     12.66551        -0.533936      0.322813      1.491809
O       9.79915      9.77030      4.28229         0.404381      0.238991      2.310122
O       9.89744      9.93667      8.51885        -0.424833     -1.338921      0.448528
O       3.78291      1.98207      2.35321         1.423215      0.314150      0.847324
O       3.77235      1.80549     14.66864         3.149165      0.603192      0.681827
O       3.91849     13.35038      2.39310        -0.502725      0.668029     -0.402825
O       3.86356     13.76524     14.68958         2.397126      0.728856      0.198477
O      15.50116      2.15249      2.14419        -1.093906     -1.151810      0.132811
O      15.54208      1.59376     14.87879        -0.316059      1.505913      0.287272
O      15.50944     13.65457      2.10279        -1.250400      0.416077      0.110826
O      15.45872     13.77383     14.76648        -0.000341      0.100289      0.535520
O       3.89660      2.29991      6.50552        -0.666147     -1.078578     -0.247226
O       3.78669     13.68012      6.37025         1.726464      0.880324      0.987831
O       0.11968      2.08018      6.35210        -1.383728     -0.735875      0.035726
O      15.55312     13.75239      6.69245        -0.667735      0.000926     -0.306288
O       3.87112      2.21943     10.37381         1.199933     -0.793765      0.680423
O       4.05054     13.82518     10.81976        -0.739098      0.307811     -0.075898
O       0.00856      2.05603     10.62926        -0.306872      0.326867      0.028436
O       0.15586     13.67775     10.48061        -0.359640      0.218270     -0.091902
O       3.69826      5.75993      2.46831         0.105353      0.158263     -1.633451
O       3.88438      5.80591     14.82103         0.583235     -1.197716     -0.811971
O      15.58080      5.64739      2.55637        -0.031738      1.158429     -1.701794
O      15.53611      5.53641     14.40298        -0.177597      0.773970      1.357205
O       3.87252      5.90233      6.41407        -0.520671     -0.579783      0.726441
O      15.52997      5.77732      6.37845         0.115774     -0.200018     -0.115858
O       4.18233      5.68427     10.38750        -2.723302     -0.061673      1.358522
O      15.39737      5.79899     10.34762         2.149774      0.098041      1.531869
O       3.74371      9.68608      2.30259         0.746844      1.532972      0.222947
O       3.97893      9.77373     14.65731        -1.776715     -0.692862      1.493984
O      15.41500      9.60202      2.05632         1.308832      0.826829     -0.009480
O       0.02556      9.97697     14.86228         0.512410     -0.695326     -0.294484
O       3.89349      9.61117      6.39076        -1.133901      0.402139      0.331900
O       0.01928      9.83886      6.77448         0.639645     -0.082717     -0.785155
O       4.03638      9.82740     10.56161        -0.805368     -2.016060     -0.677299
O       0.08318      9.46536     10.67055        -0.363826      0.803175     -0.581354
O       7.59124      2.11463      2.22004         1.057197     -0.086937      0.361063
O       7.88899      1.80148     15.05780         1.304049     -0.128046     -0.980819
O       7.65620     13.91252      2.65342         1.130964     -0.343760     -1.860571
O       7.71685     13.59704     14.99977         1.022727      0.051940      0.017928
O       7.74505      1.99628      6.66262         0.008574     -0.742618     -0.394994
O       7.80248     13.57322      6.65019        -0.239056      0.339947     -0.271129
O       7.94668      2.00579     10.39245        -1.301489     -0.684429      0.767973
O       8.00850     13.70996     10.43510        -3.546260      0.315094      0.203069
O       7.76932      6.16320      2.51231        -1.217435     -0.450718     -1.509958
O       7.87564      5.84304     14.43571        -0.903586      0.713953      0.737149
O       7.83723      6.13600      6.00772        -0.571650     -0.206278      1.531212
O       7.98563      5.76790     10.69983        -0.611267      0.313982      0.155647
O       7.88156      9.81601      2.61166        -2.862066     -0.495766     -1.133011
O       7.59500      9.81756     14.78198         2.729225      0.241292     -0.444564
O       7.78285      9.37515      6.45540         1.683214      0.978464     -0.148462
O       7.76880      9.70554     10.65052         0.480534      0.741678     -0.733171
O      11.43144      1.98802      2.44052         2.540606      0.030034     -0.062823
O      11.62479      2.06243     14.54254         0.915531     -0.176865      0.517921
O      11.62915     13.91172      2.53936        -0.483697     -0.617703     -0.640774
O      11.78421     13.55975     14.47646        -1.929409      0.854645     -0.068918
O      11.55622      2.29128      6.27282         1.655543     -1.739679     -0.115191
O      11.74196     13.56874      6.28395        -0.643618      0.450133      0.888137
O      11.68504      1.81366     10.69621         1.898766      0.882188     -0.044704
O      11.65978     13.69238     10.76427         1.314299     -0.297859     -0.388157
O      11.58864      5.66200      2.00961         3.480082      0.706133      0.419716
O      11.53794      5.69972     15.21401         1.656361      0.885687     -1.329105
O      11.57603      5.67012      6.59039         2.954545      0.204430      0.098697
O      11.61395      5.87832     10.47717         3.592188     -0.316128      0.236450
O      11.69757      9.95421      2.26875        -0.996448     -0.443704      0.205458
O      11.73663      9.64553     14.65795        -1.164582     -0.225858      0.318559
O      11.83183      9.60360      6.68041        -3.015098      0.090547     -0.612531
O      11.63498     10.02188     10.70462         0.835721     -0.767701     -0.383488
O       1.91127      3.76620      2.22227        -0.017178      2.752048      0.052961
O       1.99599      3.82477     14.50504        -0.466051     -0.181420      1.615038
O       1.89349     15.39105      2.31628        -0.135716      0.959751      0.349536
O       2.01805      0.07665     14.98420        -0.790161     -1.495736     -0.210984
O      13.55243      3.88042      2.70322        -1.033622     -0.309739     -1.404341
O      13.63839      3.87514     14.99279        -0.084358      1.444219     -0.055857
O      13.69417     15.56618      2.16101        -0.436401      1.295687     -0.175698
O      13.46801     15.55307     14.68174        -0.016509      0.606541      0.440011
O       1.83858      4.01383      6.50938         0.752949     -3.128714      0.421469
O       2.06456      0.01197      6.77412        -0.587472      1.109720     -1.044432
O      13.45860      3.90469      6.26018         1.342804     -1.282587     -0.584090
O      13.46050      0.16873      6.49847         0.351831     -0.527037     -0.670966
O       1.89362      3.78648     10.85977        -0.185838      1.815189     -0.231727
O       1.75076      0.06224     10.81902         1.186915     -0.983779     -0.992187
O      13.56710      4.03677     10.96770        -0.387002      0.132143     -1.635539
O      13.76640      0.00934     10.72938         0.051889     -0.270751      0.311407
O       1.92044      7.84755      2.13635        -0.672658     -1.758997     -0.640529
O       1.94463      7.64540     14.74195        -0.524033      0.255725      0.262089
O      13.50711      7.90662      2.19599        -0.256434     -1.370138     -0.265944
O      13.98340      7.85269     14.90996        -1.407723     -1.472057     -0.860890
O       1.78616      7.65330      6.74014         0.012369      1.247410     -0.411888
O      13.85890      7.74236      6.57326        -0.478413     -0.140789     -0.064716
O       2.02305      7.73294     10.87888         0.242784     -1.156671     -1.055880
O      13.62919      7.93652     10.77187        -0.556058     -1.692808     -0.405998
O       1.59926     11.79542      2.32450         0.072014     -2.984720      0.199540
O       1.94154     11.90857     14.79765         0.191971     -2.023041     -0.473822
O      13.59003     11.78319      2.35939         0.111368      0.073042     -0.297153
O      13.41109     11.64737     14.69195         1.186206      1.931399      0.956171
O       2.13512     11.84670      6.75354        -1.301742     -0.963071     -0.696431
O      13.44139     11.70986      6.41429         0.876758      2.633143      0.182874
O       2.02076     11.71138     10.75203        -0.488829      0.546272     -0.638384
O      14.09986     11.63001     10.51044        -1.224618      0.376201     -0.014250
O       5.91489      4.10148      2.19811        -0.335465     -2.431789     -0.127636
O       6.28119      3.84898     14.61169        -1.473911     -0.198475      1.408385
O       5.73023      0.11315      2.27489        -0.136911     -0.142248      0.246612
O       6.08463     15.60693     15.11917        -1.343434     -1.407375     -0.560943
O       6.06292      4.05598      6.50984        -0.402549     -2.652867     -0.000805
O       5.70437     15.58401      6.38403         0.534204      1.066472      0.294569
O       6.18932      3.76491     10.58026        -0.495689      0.482396      0.023609
O       5.96790      0.10734     10.38779         0.199653      0.544075      1.083017
O       5.76807      7.84103      2.10394         0.033618      0.853762      1.028318
O       5.89316      7.55107     14.62746        -0.369935      2.008723     -0.114772
O       5.63687      7.70149      6.01905         0.616574      1.349253      1.523860
O       6.03019      7.76764     10.58837        -0.538585      0.594251     -0.177195
O       6.15138     11.73931      2.40905        -0.745801     -1.659085     -0.601744
O       5.64111     11.64472     14.60938         1.096880      1.610731      0.166955
O       5.71611     11.69868      6.56013         0.600815      0.120908     -0.594332
O       5.57068     11.65248     10.71621         2.696019      1.157363     -0.977193
O       9.50608      4.17594      2.52397         0.089085     -2.251056      0.204827
O       9.59125      4.04509     14.58751         0.649750     -2.775199     -0.427162
O       9.56180      0.17074      2.15951         0.279197     -1.531380     -0.163536
O      10.06409     15.57346     14.66012        -1.519519     -0.877928     -0.384800
O       9.59051      3.83766      6.41555        -0.348905      0.658235     -0.171302
O       9.75556     15.60286      6.54415         0.247730     -0.025395      0.393694
O       9.86122      3.85833     10.23055         0.494655      0.488545      1.287177
O       9.79936      0.02485     10.29932        -0.281932     -0.218365      0.808055
O       9.71781      7.88632      2.53477         1.368262     -0.133728     -0.803208
O       9.74781      7.83749     14.81929        -0.301217      1.013504      0.217209
O      10.04878      7.70979      6.44094        -1.259729      2.173101     -0.151763
O       9.85450      7.70302     10.75200        -0.256651      2.899336     -0.800134
O       9.46998     11.92086      2.40102         0.693527     -0.739093     -0.663136
O       9.74252     11.78484     14.96762        -0.396071     -1.041374     -0.569698
O       9.71427     11.46541      6.42705         0.052652      2.345294      0.149208
O       9.70444     11.76569     10.51576        -0.168427     -2.561073     -0.334964
