  # total energy = -7841.33215679 
CRSYTAL
PRIMVEC
    15.6080000000000005    0.0000000000000000    0.0000000000000000
     0.0000000000000000   15.6080000000000005    0.0000000000000000
     0.0000000000000000    0.0000000000000000   16.6239999999999988
PRESSURE
3.41601 2.35121 0.334081 -0.080402 0.360547 -0.167367
PRIMCOORD
320 1
Pb       3.48327      3.87655      4.06414         0.790136     -0.641721      0.809851
Pb       3.74761      3.94146      0.22686        -0.226464      0.363256     -0.554976
Pb       3.60903     15.59112      4.13568         0.914212     -0.019429      0.002403
Pb       3.95436     15.51826     16.27635        -0.320396      0.158241      1.488929
Pb      15.38101      3.94508      4.11455        -0.105248      0.122322     -0.288170
Pb       0.11869      3.73705     16.36179        -0.259209      1.485064      1.111540
Pb       0.22233     15.40028      4.24278        -0.522272      0.160796     -0.669758
Pb      15.58756     15.41210      0.06799         1.728412      0.296888      0.446807
Pb       3.93121      3.99707      8.36215        -0.346671     -0.777108     -1.301547
Pb       3.94076     15.53537      7.88892        -0.155064     -0.919102      2.120754
Pb       0.05712      3.94042      8.46662        -0.016876      0.121916      0.372479
Pb       0.31674      0.28585      8.71504        -1.417165     -1.383493     -0.686787
Pb       4.17435      3.82107     12.53440        -0.897427     -0.082248      0.509416
Pb       3.88070     15.41158     12.45297        -0.168241     -0.180964      0.144675
Pb      15.44288      3.85427     12.35547         1.231348      0.465305      0.281091
Pb       0.06260      0.24809     12.69846        -0.335113     -1.136681     -0.688347
Pb       3.80386      7.52140      4.31100         0.591843      0.375873     -0.174965
Pb       3.83294      7.84924      0.06192        -0.054215     -0.060283      0.377631
Pb      15.36747      7.96172      4.39807         0.595049     -1.011458     -0.330961
Pb      15.35750      7.85316      0.26547         0.893845     -0.423761     -1.603875
Pb       3.65078      7.78734      8.03736         1.728706     -0.684520      1.098613
Pb      15.53224      7.60239      8.39981        -0.758662      0.684282     -0.177607
Pb       4.11653      7.96759     12.19782        -0.360532      0.506480      1.909538
Pb      15.55824      7.79662     12.65691        -0.801922      0.785224     -0.576856
Pb       4.19281     11.42432      3.77122        -0.255543      0.854354      1.753756
Pb       4.22441     11.49489     16.34329        -2.196803     -0.330671     -0.094112
Pb      15.33334     11.82753      4.25651         0.788876     -0.175782      0.044783
Pb      15.59662     11.61048      0.22653         0.533160      0.396533     -0.844957
Pb       4.18701     11.65475      8.43805        -0.451962     -0.364619     -0.824475
Pb       0.05651     11.52220      8.78037         0.041572     -0.071358     -0.696509
Pb       3.60732     11.61389     12.21571        -0.212025      0.225591      2.043414
Pb       0.03273     11.64214     12.47522         0.078169      0.330874      1.014563
Pb       7.71353      3.88418      4.44502        -1.243599      0.576555     -0.552849
Pb       7.88815      3.80908      0.27060        -0.966935      0.341963     -0.804188
Pb       7.29216      0.11137      4.11835         2.079438     -1.150470      0.091453
Pb       7.92364      0.21615      0.26942        -1.086921     -0.449146     -0.587039
Pb       8.13068      3.86097      8.73288        -0.341135     -0.285773     -0.335402
Pb       7.80940      0.13823      8.35431        -0.155873      0.101191     -0.265017
Pb       7.77075      3.56912     12.70826         0.115153      1.220339     -0.444844
Pb       7.66858     15.47671     12.31452         0.922324     -0.247909      0.342777
Pb       8.01857      7.75103      4.06564        -1.102637     -0.900913      0.428793
Pb       7.99423      7.72514     16.42241        -1.627878     -0.333797     -0.332052
Pb       7.84382      7.55099      8.12136        -0.522788      0.960034      0.519642
Pb       7.75571      7.59427     12.34139         0.952745     -0.370080      0.603610
Pb       7.80553     11.71682      4.34508        -0.291851      1.327849     -1.075469
Pb       7.61853     11.44271      0.01811         1.573585      0.242566      0.236415
Pb       7.75306     11.87226      8.64849         0.792733      0.204752     -1.096745
Pb       7.39120     11.76912     12.39140         1.902475      0.051374      0.501103
Pb      11.78767      4.05370      4.11567         0.424444     -0.007054      0.720594
Pb      11.58895      3.79827      0.19488         1.145599      0.134151     -0.705144
Pb      11.40327      0.25987      3.79438         0.375769     -1.288485      1.577919
Pb      11.36891     15.47032     16.43620         1.654778      1.817211      2.145826
Pb      11.57105      3.63373      8.16701         0.888833      0.728767      1.486920
Pb      11.48319     15.48235      8.48266         1.221128      0.619412     -0.134695
Pb      11.76006      4.20065     12.51064        -0.035039     -0.190490      0.192869
Pb      11.83890      0.25454     12.56166        -0.964156     -3.095001      1.167680
Pb      11.92875      8.06097      3.86608        -0.752830     -0.587420      1.422517
Pb      11.21434      7.83726     16.56236         3.399492     -0.033392     -0.863728
Pb      11.27281      7.82793      7.98682         1.984916     -0.082766      0.745351
Pb      11.79616      7.93819     12.25867         0.159936     -0.685858      0.546286
Pb      11.62987     12.05138      4.32858         0.356601     -0.063981     -0.453540
Pb      11.50324     11.85876      0.32177         0.693691     -1.254738     -1.100860
Pb      12.10833     11.54624      8.38596        -1.688063      0.524385      0.298967
Pb      11.80250     11.90626     12.58160         0.427147      0.089301      0.429178
Ti       1.93201      1.90078      1.96608         1.030669     -0.739182      1.623312
Ti       1.91501      1.87911     14.59715         1.286739      0.353298     -0.975530
Ti       2.10935     13.45324      2.29560        -1.474410      1.175368     -1.438343
Ti       2.02345     13.50768     14.73910         0.391151     -1.031642     -1.577216
Ti      13.82970      1.79026      2.10244         0.127666      2.037829      0.488275
Ti      13.66533      1.84665     14.74984        -2.246628      0.750375      0.624088
Ti      13.63098     13.77964      2.18964        -0.356917     -1.249304      5.718554
Ti      13.83141     13.65656     14.92221        -0.964909     -2.346560     -3.560947
Ti       1.65544      1.78723      6.33762         3.451273      1.615691     -1.348087
Ti       2.02093     13.43735      6.28265         1.183542     -0.087094     -0.690306
Ti      13.55880      1.70276      6.40294        -0.170353      1.673718     -0.883463
Ti      13.80841     13.58505      6.48557        -2.081441      1.467783     -0.608204
Ti       2.24399      1.82876     10.48858        -1.794177      0.814940      0.876877
Ti       1.88682     13.54687     10.24076         0.997424      1.989145     -1.112632
Ti      13.63830      1.86912     10.47260         0.404496     -1.192567     -0.635417
Ti      13.70327     13.68999     10.41630        -0.120009     -0.090422      0.178266
Ti       1.79654      5.97900      2.21798         0.673013     -0.518765     -2.343749
Ti       1.93980      6.01749     14.48635         0.855970     -2.711639      1.011498
Ti      13.63888      5.86807      2.03527         0.871537     -1.412247     -0.390851
Ti      13.72541      5.73118     14.72521        -2.629419      0.982297      0.099578
Ti       1.70981      5.66655      6.50711         1.345069      0.286434      1.016884
Ti      13.49487      5.73063      6.52051        -0.380977      1.094574     -1.538277
Ti       2.22952      5.93271     10.68260        -1.732432     -2.842689     -1.592140
Ti      13.69980      5.70659     10.39132        -1.469452      1.679972     -0.836892
Ti       2.01029      9.71851      2.36487         0.250219     -1.134401     -0.021574
Ti       1.99460      9.64723     14.71312        -0.732452      1.967647     -0.638169
Ti      13.75776      9.72596      2.03043        -1.500886      1.282197      2.944694
Ti      13.68080      9.63992     14.62055         0.927724      0.029525      0.124492
Ti       2.04339      9.66880      6.33182        -1.204124      0.659153     -1.983900
Ti      13.63673      9.75181      6.30929         0.358265     -2.109858      0.072596
Ti       1.97435      9.52030     10.36879        -0.352548      3.285664      4.380964
Ti      13.61039      9.72697     10.48400         0.996764     -1.380487      0.722197
Ti       5.85254      1.99009      2.10868        -1.435057      0.083280     -1.261788
Ti       5.70655      1.99003     14.68852         1.326229     -0.345811      0.245472
Ti       5.72760     13.66590      1.86755         1.680516      0.387236      5.352273
Ti       6.12123     13.66951     14.68461        -0.172730      1.092347     -0.440983
Ti       5.77313      1.87902      6.27386        -0.145760      2.910609      0.073165
Ti       5.98582     13.71191      6.25655        -1.067061     -1.544050     -1.261427
Ti       5.86277      1.88080     10.56033        -0.411832      0.008399     -0.872458
Ti       5.80625     13.56451     10.37052        -0.059048      2.112801     -1.186549
Ti       5.70286      5.72182      2.09654         0.909566      1.089390      3.096886
Ti       5.76314      5.93168     14.56215         2.248995     -0.472745      0.949981
Ti       5.79121      5.89269      6.35122        -0.715612     -0.706522     -0.065514
Ti       5.79827      5.85723     10.29673         5.654647     -0.869617      0.610256
Ti       6.01264      9.58864      2.09140        -2.374726     -1.162043     -0.735534
Ti       6.10699      9.63607     14.51210        -2.505190     -1.008844      0.012915
Ti       6.00649      9.91277      6.38966        -3.378740     -1.426155      0.881541
Ti       6.01150      9.72426     10.50049        -2.339241      0.395898     -2.659851
Ti       9.76687      1.98471      2.09716        -2.256645      0.370128     -0.283666
Ti       9.62492      1.91513     14.71533         0.387857     -0.181751      0.528505
Ti       9.57085     13.58545      2.08351        -1.164099      0.745193      1.489659
Ti       9.87660     13.64970     14.69161        -0.173193     -1.227749     -3.398537
Ti       9.70373      1.99317      6.05630        -0.780693     -0.192865     -0.884774
Ti       9.81198     13.74588      6.47086         0.028625      0.077605     -0.857644
Ti       9.81358      1.87922     10.76125         0.244530      0.048884     -0.448647
Ti       9.93861     13.60976     10.44817        -2.221069      0.516101      1.902948
Ti       9.69410      5.84173      2.04288        -0.414281     -0.802719      3.264718
Ti       9.74502      5.68285     14.61054         0.071036      2.722630     -1.890108
Ti       9.60963      5.73937      6.30982         2.084298     -0.038378     -1.812053
Ti       9.67646      5.91999     10.62200         1.298001     -1.053657     -0.340810
Ti       9.72114      9.71447      2.07520         1.497392      1.553494      0.372919
Ti       9.91183      9.82073     14.36624         0.683797      0.586070      1.381728
Ti       9.68783     10.03230      6.11945         1.387711     -1.499880      1.158878
Ti       9.72085      9.86637     10.45031         1.202181     -0.692126      1.384371
O       2.05408      1.76187      0.15399        -1.163679      0.872264      0.237877
O       2.01716      1.77326     12.57477        -1.183803      0.166630      2.788658
O       2.01293     13.24085      0.46059         0.254148      0.781818      0.384047
O       1.86620     13.38633     12.89060         0.077886      1.435571     -0.312242
O      13.62544      1.98009      0.23832         0.997118     -1.067790      2.187385
O      13.56455      1.59569     12.91935         1.743445      1.137986      0.168494
O      13.97407     13.73578      0.56276        -0.288443     -0.303940     -3.248761
O      13.67542     13.81462     13.08694         0.232048     -0.317335      0.603666
O       1.76465      2.04159      4.42243         0.474542     -1.012639      3.106575
O       2.09996     13.77116      4.35118        -0.868184      0.405287      1.707923
O      13.47004      2.05766      4.53861         0.343016     -0.235304      1.248175
O      13.58901     13.47578      4.55206         0.124356      0.168988      1.054139
O       2.31036      2.19242      8.74590        -0.862737     -0.652776     -0.551701
O       1.98652     13.38140      8.35859        -0.308781     -0.366818      1.241959
O      13.39612      1.82674      8.72556         0.437373      0.331969     -0.776604
O      13.60729     13.72900      8.59253         0.160575     -1.335496      0.125736
O       2.11415      5.82503      0.37290        -1.094817      0.373503      0.459046
O       2.02713      6.05317     12.65203        -0.114578     -0.571615     -0.003599
O      13.51040      5.84434      0.19380         0.436760      0.081686      1.018947
O      13.95557      5.54709     12.87256        -1.203802      0.718034      0.223151
O       1.88907      5.64755      4.80172        -0.084326      0.422532     -3.380379
O      13.78540      5.82700      4.40701        -0.674573     -0.233906      1.697067
O       1.92798      5.93536      8.69039         0.277089     -0.530141      0.939394
O      13.50906      5.54968      8.47757         0.303974      1.071809      2.874613
O       1.99483      9.38655     16.55698        -0.583053      1.205083      0.773820
O       1.75870      9.96345     12.67914         0.901794     -1.065234      0.240011
O      13.82202      9.63558      0.32810        -0.340360      0.727004     -1.217663
O      13.66773      9.28453     12.82396         0.135645      1.253382     -0.784565
O       2.12296      9.28564      4.25978        -0.030916      1.780603      1.565126
O      13.76176      9.77089      4.41986        -0.442395     -0.663407      0.802518
O       1.90560      9.75501      8.68615        -0.706055      0.844850     -3.287185
O      13.79124      9.68564      8.65951        -0.443498      1.239708      0.036642
O       5.61264      1.83073      0.25169         0.600437      0.758408      0.270031
O       5.75368      1.81659     12.74254         0.882386      0.107147      1.616253
O       5.62550     13.66579      0.19514         0.748672     -0.491385     -3.195620
O       5.87469     13.39027     12.86081         0.064902      1.146803      0.507352
O       5.94457      1.97116      4.44191        -0.580814     -0.407322     -0.057665
O       6.05540     13.64723      4.34564         0.078023      0.151577      2.294321
O       5.83655      1.78987      8.75649        -0.372268      0.281009      0.516364
O       5.86235     13.57744      8.48686        -0.100873     -0.317123      1.396550
O       6.00860      5.76114      0.44810        -0.108225     -0.090860     -2.653255
O       5.97885      6.07720     12.78324        -0.200818     -0.078837     -0.539941
O       5.94258      5.87938      4.60147        -0.290392     -0.157062     -1.018365
O       5.92258      5.61556      8.59475         0.031440      0.311930     -0.993016
O       6.06608      9.57972      0.25905        -0.213997      0.763825     -0.293594
O       5.98417      9.78546     12.61499        -0.011528     -0.471795      0.814438
O       5.74607      9.51977      4.65594        -0.041722      0.795100     -1.616200
O       5.79534      9.84742      8.48354         0.832740      0.672322      1.586080
O       9.77582      1.72066      0.19440        -0.396049      0.896240      0.524165
O       9.78692      2.28501     12.89481        -0.284303     -0.932443      0.312036
O       9.90178     13.62735      0.31827        -1.220883     -0.315355      0.318091
O      10.10462     13.51771     12.76398        -1.250624      0.102193      2.356285
O       9.75956      2.23792      4.09000        -0.652187     -0.339857      2.372143
O       9.60609     13.53574      4.68864         0.655019     -0.090778     -1.070150
O       9.97190      1.78476      8.94943        -0.877646      0.343027      0.231141
O       9.62849     13.91606      8.69319         0.820789      0.265576     -0.922239
O       9.96636      5.80270      0.34950        -0.705441      1.313123     -2.399275
O       9.41284      5.72202     12.72011         0.941279     -0.159116      0.809442
O       9.49291      5.57320      4.47009         0.958940      0.333351      0.629633
O       9.74676      5.68819      8.73879        -0.391553      0.787891     -1.024713
O      10.09136      9.87824      0.29204        -1.779845     -0.034624      0.408985
O       9.91714      9.97791     12.61459        -0.372077     -0.402697      0.885529
O       9.49973      9.97037      4.32427         0.688967     -0.603781      0.812233
O       9.70490      9.72474      8.74597         0.036092     -0.329352     -1.869402
O       3.83459      2.02549      2.24052        -0.469936      0.394285      0.652811
O       3.83825      1.70344     14.86144         0.224823      0.856348     -1.190146
O       3.95488     13.68638      2.58562         1.388374     -0.287303     -0.740000
O       3.88296     13.58137     14.84517         2.485518      1.081579      0.134583
O      15.60433      1.76893      2.75067        -1.159207     -0.034323     -2.493766
O      15.47780      2.20502     14.65892         2.900276     -1.132458     -0.005463
O       0.18129     13.64872      2.61036        -1.817018      0.545142     -0.239657
O       0.25163     13.68011     15.21863        -2.529688     -0.757713      0.342782
O       3.79823      1.63771      6.58654         0.898357      1.321200     -1.450428
O       3.96040     13.76093      6.24429         0.266931      0.368431      0.811230
O      15.59963      2.09046      7.06718        -0.205716     -0.455556     -1.407230
O      15.50903     13.35957      6.43844         2.641284     -0.232160      0.025369
O       3.91961      1.76649     11.16265         1.644147      0.416102     -1.759277
O       3.83491     13.39562     10.68828         0.122389      1.467687     -0.428131
O       0.03566      1.66985     10.54571         0.022664      0.877970      0.726111
O      15.58915     13.62806     10.50579        -0.206679      0.608806     -0.060332
O       3.84540      5.71002      2.23126         0.296520     -0.234448      1.333240
O       4.01732      5.77404     14.67964        -2.352667      0.339004      0.262166
O      15.58383      6.03328      2.49535         0.963515     -0.164617     -0.522376
O      15.52138      5.74524     15.05067         2.865898      0.278475     -0.653665
O       3.90995      5.91991      6.65742        -0.223463     -0.727025      0.046410
O      15.43790      5.89233      6.82777         1.190490     -0.763197     -0.751417
O       4.21077      6.02829     10.84210        -6.431102     -0.284885      0.458292
O      15.41535      5.81646     10.83925         2.289409     -0.670914     -0.798059
O       3.75992      9.55891      1.75666         1.073146      2.160279      1.460681
O       4.09685      9.62101     14.64140         0.023828      0.348766      0.419009
O       0.01696      9.60549      2.25063         1.135941      0.284935      0.082770
O       0.02139      9.39479     14.78520         1.010657      1.160068      0.168617
O       3.80619      9.66451      6.72909        -0.566438      0.305047     -0.693283
O       0.00683      9.64163      6.45214         0.286815      0.222116      0.203310
O       3.87350      9.83386     10.71112        -1.022217     -0.582243     -0.633112
O      15.44332      9.99413     10.93743         1.268758     -0.994290     -2.000198
O       7.77099      1.85056      2.00703        -0.322026      1.832812      0.278686
O       7.76109      2.08640     15.12181         0.572824     -0.342364     -0.887030
O       7.63217     13.67684      2.19614         1.374462     -0.846727     -0.614471
O       8.01558     13.51609     14.81410        -3.122621      0.217154      0.065830
O       7.74230      2.04556      6.58876         1.604278     -0.349451     -0.259648
O       7.96557     13.55738      6.74713        -2.279455     -0.046609     -0.098612
O       7.76584      1.93110     10.70823         0.566949     -0.231263      0.686152
O       7.81633     13.73404     10.54646        -0.816014     -1.460566      0.910028
O       7.87615      5.86830      2.55655         0.151388      0.071906     -1.365221
O       7.85339      5.97652     14.87277        -0.334602     -0.114718      0.508745
O       7.78393      5.87697      6.47466        -0.398987     -0.423004      1.107430
O       7.80479      5.89399     10.54770        -1.664937      0.509897      0.273378
O       7.78666      9.64450      2.09543         1.792233     -0.174511      0.960037
O       8.00013      9.58930     14.74538        -0.740039      0.564304      0.091912
O       7.72875     10.18840      6.34385         2.848287     -0.419678      0.682707
O       7.75602      9.78712     10.64808         1.729800      0.366060      0.010327
O      11.52823      2.03770      2.29418         3.447886     -0.502013     -0.288301
O      11.63663      1.59844     15.08895         0.460315      1.369731     -1.855213
O      11.64071     13.66671      2.54798         0.000240      0.069254     -0.872191
O      11.82976     13.71042     15.18088        -0.360781     -0.569977     -0.808762
O      11.61640      1.96274      6.63918         0.866134     -1.175941     -0.845390
O      11.70559     13.73633      6.83269        -0.272900      0.042904     -0.828542
O      11.85506      1.70942     10.96312        -2.330931      1.975056     -0.865320
O      11.64511     13.77415     10.77744         2.239486     -0.506180     -0.834336
O      11.87270      5.51733      2.37422        -2.144711      1.245348     -0.031491
O      11.71140      5.98497     14.66031        -1.030283     -1.330505     -0.301173
O      11.50513      5.92960      6.26851         0.958823     -0.238725      0.921778
O      11.73132      5.80860     10.83721         0.292167     -0.233319      0.340739
O      11.73944      9.77213      2.32539         0.228648     -0.176969      0.283492
O      11.92451      9.79453     14.94432        -4.360088      0.293202     -0.518968
O      11.66434      9.52893      6.34202        -0.945090      1.225084      0.143305
O      11.79962      9.80737     10.79954        -1.717875     -0.589870     -0.556307
O       1.88297      3.88683      2.45798        -0.734395     -0.133907     -0.851334
O       2.18249      3.92577     15.06238        -1.211731     -0.965293     -1.133013
O       2.06050      0.03648      2.44152        -0.578727      0.224081     -0.417236
O       1.84799      0.01483     14.74815        -0.187294      0.623591      0.192599
O      14.00795      3.96138      2.19160        -0.565279     -1.752619      0.612264
O      13.51947      3.78587     14.86021        -0.179583     -0.011041      0.090132
O      13.53039      0.02000      2.87454         0.773640     -0.170014     -2.276420
O      14.01108     15.48182     15.10451        -0.576143      2.550238      0.041689
O       2.14803      3.80547      6.61486        -1.022480     -0.481559      0.590193
O       1.95621     15.41790      6.69706        -1.750013      2.205907     -0.937205
O      13.56121      3.93516      6.70261        -0.043360     -1.417348     -0.983653
O      14.07631      0.00140      6.62224        -1.293164     -0.455565     -0.667903
O       2.05682      4.08772     10.67749         0.492479      0.317060      0.462136
O       2.09502      0.00148     10.24569         0.304663     -1.276160      1.078417
O      13.81015      3.69841     10.83657        -1.000110      0.986872     -0.422905
O      13.57063     15.46173     10.63289         0.562661      0.944385      0.696821
O       2.14802      7.81980      2.37685        -0.860061     -2.057937     -0.316292
O       2.00356      7.74489     14.64676         0.415100     -0.592824     -0.156256
O      13.70955      7.77257      2.46725        -0.340054      0.894306     -0.717340
O      13.53881      7.84370     14.98576         0.920189     -2.184790      0.274524
O       1.93613      7.63434      6.52637        -0.301599      1.927818      0.218257
O      13.46902      7.80352      6.82556         1.036283     -0.203269     -0.827735
O       1.76291      7.82081     10.51718         0.197442     -1.756730      0.872531
O      13.80599      7.69918     10.62504        -0.945340      0.247927      0.027482
O       2.08196     11.66506      2.64178        -0.367514     -2.007292     -0.209763
O       2.24352     11.69004     14.74182        -0.873040     -2.365484      1.207338
O      13.86344     11.72499      2.55033        -1.035439      0.127465     -1.967982
O      13.72336     11.71815     14.93213         0.993571      0.147161      0.766031
O       2.13668     11.65597      5.99608        -0.413033     -1.575978      1.020441
O      13.45632     11.57615      6.57923         0.493883      0.879965     -0.010287
O       1.63615     11.87806     10.70612         1.061879     -3.025778     -0.361089
O      13.46709     11.70605     10.94897         0.848232      0.880374     -1.518060
O       5.95564      3.86563      2.46359        -0.037843      0.141213     -0.140321
O       5.93399      3.82084     14.69011        -0.852510      0.538242     -0.150858
O       5.92345      0.13009      2.37356        -1.210907     -1.997591     -0.592347
O       6.08896      0.03932     14.92464        -0.808312     -2.282503     -0.759321
O       5.82254      3.73779      6.48308        -0.768710      0.649674      0.351230
O       6.03465     15.56329      6.58011         0.062898     -0.163583     -0.192745
O       5.69281      3.81523     10.86688         0.689762      0.709098     -0.975709
O       6.00803     15.42976     10.74653        -1.660067      0.764565      0.153840
O       5.59950      7.80254      2.51049         0.987993     -0.151387     -0.367365
O       5.80271      7.75005     15.18633         1.399395      0.434243     -1.645203
O       5.76487      7.78663      6.69842         1.101314      0.006191      0.216710
O       5.74504      7.94913     10.48931         0.859093     -1.830048      0.342115
O       5.98548     11.62059      2.26959        -0.871996      0.079709     -0.497708
O       6.10396     11.54040     14.91957        -0.175994      0.499954     -0.451420
O       5.56830     11.77038      6.50338         0.880918     -0.102102     -0.350789
O       5.70845     11.72193     10.58484         1.505297     -0.850614      0.237668
O       9.81261      3.91259      1.81184        -0.963793     -0.688016      1.364832
O       9.60396      4.00214     15.10975         0.884722     -2.693968      0.035274
O       9.27510     15.59991      2.31917         2.797137     -0.919485      0.390232
O       9.51128      0.01274     14.86544         0.876502     -0.628088     -0.264456
O       9.87747      3.78814      6.64712        -1.429970      1.278740     -0.257767
O       9.69384      0.23916      6.32594         0.171208     -2.107119      0.762058
O       9.61837      3.94372     10.76338         0.344623     -1.433925     -0.067810
O       9.77401     15.58271     11.14592        -0.670872      1.260183     -1.047475
O       9.74718      7.82451      2.40569         0.708879     -0.490284     -0.178624
O       9.72840      7.77674     14.85105         0.762315      1.077445     -0.364852
O       9.61110      7.88252      6.52035        -1.444658     -0.142645     -0.618062
O       9.77492      7.78937     10.86884        -0.308698      0.649534     -0.482532
O       9.77629     11.62345      2.45328        -0.542944      1.692784     -0.896735
O       9.77691     11.75750     14.91094         0.840223     -1.430885      0.071360
O       9.90506     11.77144      6.66320         0.167373     -0.931680     -0.215849
O       9.83790     11.72830     10.41900        -0.335203      0.226067      0.438278
