  # total energy = -7864.28601897 
CRSYTAL
PRIMVEC
    15.6080000000000005    0.0000000000000000    0.0000000000000000
     0.0000000000000000   15.6080000000000005    0.0000000000000000
     0.0000000000000000    0.0000000000000000   16.6239999999999988
PRESSURE
1.23708 0.929595 1.73101 -0.337721 -0.19008 0.021784
PRIMCOORD
320 1
Pb       3.94131      3.89967      4.15452        -0.483098      0.015128     -0.781510
Pb       3.91590      3.83929     16.59957         0.027782      0.063066      0.299374
Pb       3.95770     15.59851      4.12405        -0.937399      0.015824     -0.261648
Pb       3.89982      0.02221      0.02830        -0.783319      0.352490      0.690457
Pb       0.03589      3.87200      4.14288         0.324677      0.504699     -0.154681
Pb      15.60656      3.88140     16.61499        -0.108186     -0.329633      0.851898
Pb      15.56656      0.00216      4.12716         0.324831     -0.069304     -0.313201
Pb      15.59945      0.00127     16.59158         0.226748      0.258365      0.908040
Pb       3.91221      3.85640      8.26374        -0.544895      0.168346     -0.267666
Pb       3.89247     15.60610      8.36649        -0.013999     -0.410639     -0.432771
Pb      15.58657      3.85108      8.29755         0.098441     -0.259328     -0.107351
Pb      15.53689     15.57722      8.26060        -0.116036      0.644156     -0.256832
Pb       3.84793      3.86788     12.40218        -0.233536      0.310386      0.583042
Pb       3.86913      0.05293     12.41861         0.223683     -0.388728      0.748586
Pb       0.01830      3.89415     12.42739         0.462351     -0.792652      0.516817
Pb      15.51633     15.53189     12.34531         0.557294      0.707555      0.301596
Pb       3.88899      7.87104      4.13166         0.132366     -0.463148     -0.195705
Pb       3.91244      7.81651     16.59396         0.229517     -0.061371      0.000772
Pb       0.01376      7.77069      4.12918        -0.356385     -0.400371      0.113681
Pb      15.60778      7.85391     16.57506        -0.707564     -0.048956     -0.364135
Pb       3.92650      7.80795      8.34555         0.679507      0.656795      0.878247
Pb      15.60674      7.78855      8.33636        -0.280859      0.008006     -0.656082
Pb       3.86939      7.73936     12.49779         0.124629      0.377778     -0.649434
Pb      15.59216      7.75918     12.43278        -0.420672     -0.618483      1.271065
Pb       3.85072     11.74098      4.21619         0.461575     -0.223891     -0.371678
Pb       3.81216     11.71774      0.03119         0.302425     -0.394831     -0.109525
Pb       0.02242     11.67021      4.11604        -0.143452      0.151080      0.767235
Pb      15.56329     11.66792     16.56560        -0.624979      0.460598     -0.492196
Pb       3.87201     11.64778      8.25191        -0.160811      0.067043      1.335788
Pb      15.57080     11.67446      8.25795        -0.107364     -0.242013      0.168579
Pb       3.99385     11.72996     12.42981        -0.190463     -0.743424      0.401047
Pb      15.54635     11.68748     12.44309        -0.618769      1.442268      0.897952
Pb       7.85790      3.89083      4.02982         0.012385      0.501218      0.593758
Pb       7.80609      3.90522     16.55128        -0.759327     -0.133870      0.979483
Pb       7.88345     15.59284      4.10737         0.003393     -0.726712      1.162425
Pb       7.74109     15.54005     16.57594         0.648297     -0.488841      0.194476
Pb       7.71574      3.91794      8.18973         0.783697     -0.157990      1.196094
Pb       7.76660     15.59744      8.29355        -0.019427      0.226292      0.514755
Pb       7.79880      3.89496     12.42449         0.451618     -0.433921      0.588147
Pb       7.86964      0.05841     12.47150        -0.493909     -1.776769      0.909175
Pb       7.75191      7.80622      4.11639        -0.536037     -0.429330      0.211643
Pb       7.74718      7.81089      0.02381         0.636993     -0.455417     -0.589053
Pb       7.77061      7.83184      8.28086        -0.639771      0.116135     -0.016332
Pb       7.77616      7.84708     12.44121        -0.311441     -0.481182      0.177412
Pb       7.76696     11.71076      4.09615        -0.043766      0.211614      0.954861
Pb       7.81852     11.78442     16.59176         0.223405      0.183868     -0.730679
Pb       7.74427     11.64087      8.20846         0.546669     -0.014259      0.594427
Pb       7.80331     11.62494     12.49119         0.299375      0.950612     -0.239342
Pb      11.61445      3.88013      4.08934        -0.180126     -0.993050      0.573136
Pb      11.70541      3.85199     16.57652         0.262320     -0.354810      0.579309
Pb      11.67764     15.56929      4.16200         0.346802     -1.087830     -0.241967
Pb      11.74358     15.59592      0.03131         0.027730     -0.282984     -0.231250
Pb      11.64428      3.92571      8.33499         0.086032      0.156677      0.155283
Pb      11.66148      0.02747      8.24917         0.441543     -0.379170     -0.313227
Pb      11.65914      3.80913     12.41569        -0.361620     -0.293012     -0.031773
Pb      11.66134     15.51940     12.41050        -0.384172      0.422138      0.708760
Pb      11.57310      7.73646      4.14056         0.891869      0.206154      0.062327
Pb      11.74208      7.80622     16.58251        -0.224450      0.746266      0.485791
Pb      11.72957      7.73751      8.38582        -0.044615      0.810746     -0.647741
Pb      11.66204      7.77147     12.46180         0.380718      0.155765      1.128989
Pb      11.62291     11.63243      4.05267         0.217345      0.698839      1.534397
Pb      11.73132     11.62690     16.52413        -0.217195      0.179068      0.205643
Pb      11.60736     11.69171      8.27654        -0.441240     -0.422433     -0.180544
Pb      11.71184     11.66080     12.42520        -0.530233      0.131634     -0.068770
Ti       2.00318      1.94908      2.20093        -1.021479     -0.407631     -1.028844
Ti       1.92799      1.92761     14.72880        -0.628075      0.731339     -0.013563
Ti       1.87195     13.62634      2.21393         1.459621      1.219411      0.221755
Ti       2.07590     13.82311     14.54930        -4.512523     -1.467212      0.110617
Ti      13.70201      2.05316      2.22613        -0.110991     -1.540485     -0.261998
Ti      13.61222      1.90236     14.72446         1.038548      0.663652     -0.697861
Ti      13.69662     13.63526      2.19940        -0.914870      0.130276     -0.124136
Ti      13.73534     13.74195     14.53634        -0.642245     -2.222923      1.025556
Ti       1.94802      1.92288      6.42199        -1.324630      0.699897     -0.072800
Ti       2.02303     13.63669      6.45735        -1.959177     -0.039745     -0.675324
Ti      13.52470      1.99369      6.25914         1.451243     -1.683453      0.347071
Ti      13.65044     13.61957      6.46047        -1.187760     -0.735201     -1.858212
Ti       2.05486      1.93372     10.40773        -4.024269      0.076014      0.380690
Ti       1.88552     13.59560     10.51058         0.060045      0.672310      1.383360
Ti      13.72469      1.97621     10.53001        -0.005023     -0.974222      0.153860
Ti      13.52294     13.72484     10.49179         0.502476     -1.473771      0.609225
Ti       1.97018      5.87381      2.11826        -0.028028     -1.248008      1.027777
Ti       1.90433      5.88387     14.84117        -0.110543     -1.376578     -1.157644
Ti      13.55368      5.84117      2.21543         1.094297      0.455098      1.047066
Ti      13.63871      5.80999     14.72743         0.513688      0.451003      0.324648
Ti       2.06421      5.90866      6.50941        -1.756965     -1.420093     -1.282596
Ti      13.64002      5.76845      6.31292         0.154749      0.406260      0.567761
Ti       1.90190      5.92022     10.50674         0.660675     -0.618723     -1.012261
Ti      13.56032      5.87655     10.55037         1.212521     -0.787932      1.127638
Ti       1.95403      9.75897      2.24059         0.391594     -0.488448      0.137609
Ti       2.01894      9.88094     14.70264        -0.106486     -0.266565      0.024630
Ti      13.61180      9.88043      2.21423        -0.226983     -1.996495      0.304596
Ti      13.62053      9.72912     14.61306        -0.444284     -0.139116      1.092730
Ti       1.95271      9.70255      6.46032        -0.660081      0.807814      0.762187
Ti      13.66064      9.64743      6.33766        -1.450880      0.681410      0.940404
Ti       1.70694      9.84941     10.75703         2.888619     -1.102457     -3.081219
Ti      13.56802      9.69828     10.54799        -1.402824      1.495129      0.151072
Ti       6.03777      1.81986      2.30363        -3.331113      1.789347     -1.496804
Ti       5.90060      1.77236     14.81251        -0.734880      1.953224     -2.111793
Ti       5.80565     13.71141      2.25430        -0.348758     -1.940147     -0.540366
Ti       5.71899     13.60949     14.82080         2.908594     -0.972764     -1.450157
Ti       5.79172      1.87189      6.28425         1.074998      1.457115      0.418390
Ti       5.79012     13.65887      6.46287         2.033905     -0.833865     -1.770885
Ti       5.63166      1.88355     10.43271         4.422463      0.371063      1.850824
Ti       5.76171     13.56843     10.66215         1.706563      0.328147     -1.363457
Ti       5.89265      5.76773      2.20576        -0.690096      0.126645     -0.543059
Ti       5.77580      5.81052     14.68133         1.482267     -0.220342      0.538230
Ti       5.84953      5.76464      6.39497         1.447654      1.457498     -0.318117
Ti       5.90665      5.78862     10.54980         0.434007      1.161545     -0.500061
Ti       5.90269      9.82576      2.04483        -1.385794     -0.473928      2.972889
Ti       5.90891      9.70296     14.67706        -1.247273      0.845964      0.244726
Ti       5.72123      9.83470      6.31884         2.302284     -1.122190      1.016506
Ti       5.77696      9.66614     10.55455        -0.376768      0.175302      0.202230
Ti       9.76291      1.77267      2.11671         0.535569      3.385515      0.643497
Ti       9.66471      1.89855     14.62438         1.025755     -0.008484      2.111330
Ti       9.72961     13.49455      2.17162         0.264371      2.303614      0.188096
Ti       9.76547     13.69305     14.73653        -0.538838     -0.923354     -1.787423
Ti       9.74155      1.97376      6.36547        -1.467812      0.652508      0.415561
Ti       9.68033     13.74496      6.42963         0.788043     -3.190990     -0.484104
Ti       9.71998      1.91157     10.49860        -0.057363     -0.101656      1.535411
Ti       9.70551     13.56451     10.52447        -1.483366     -0.256255      0.539437
Ti       9.76520      5.77986      2.09498        -0.309263      0.026777      0.795071
Ti       9.73651      5.83033     14.81182        -0.443430      0.610744     -0.912349
Ti       9.86846      5.83316      6.25956        -1.160534      0.244159      0.707538
Ti       9.78043      5.92758     10.49447        -0.611792     -2.800817      1.368163
Ti       9.77824      9.63934      2.25141        -0.263990      1.134850     -0.299207
Ti       9.70283      9.72919     14.57600         0.936571     -0.181658      1.646728
Ti       9.71589      9.61046      6.42876         1.144605      1.917761     -0.528424
Ti       9.74220      9.67426     10.52263        -0.631850      1.215328      0.229310
O       1.76718      1.60737      0.38702         1.237301      0.861635      0.824515
O       1.82302      1.94571     12.93089         0.697007      0.152135      0.632874
O       1.85612     13.96468      0.48803         0.444399     -1.241640     -0.636716
O       1.74987     13.80990     12.80434         0.980919     -0.443250     -0.009248
O      13.46994      2.09091      0.48322         0.559206     -1.013183     -0.465483
O      13.69972      1.80667     12.93160        -0.108115      0.512787      0.683149
O      13.67286     13.50328      0.45021        -0.106995      0.212966     -0.159866
O      13.61278     13.70300     12.73566         0.111664     -0.401792      1.039923
O       1.98945      2.12037      4.67113        -0.107572     -0.883775     -0.831801
O       1.74520     13.44722      4.73006         0.850897      0.897750     -1.196578
O      13.56167      1.99081      4.48293         0.209548     -1.092005     -0.331398
O      13.46418     13.53892      4.54918         1.042399      0.586421      1.176887
O       1.79404      2.01977      8.63556         1.347365     -0.639204      0.374447
O       1.90405     13.51653      8.77547         0.346762      0.373769     -0.869009
O      13.91209      1.82223      8.75962        -1.609023     -0.017509      0.439005
O      13.59216     13.67530      8.71184        -0.229247      0.427654      0.190870
O       2.05687      5.54523      0.35469        -0.281430      2.337579      0.647863
O       1.93796      5.67058     13.00211         0.143058      0.317366      0.293793
O      13.61301      6.00837      0.47121         0.311205     -0.655743      0.131046
O      13.66965      6.04543     12.95244         0.198433     -1.274503      0.400014
O       2.10398      5.93220      4.73662        -0.577739     -0.673603      0.159885
O      13.72841      5.60349      4.56443        -0.254415      0.809545      0.260673
O       1.76826      5.76129      8.67224         0.681329      0.779608      1.448820
O      13.55789      5.76714      8.82221         0.050766      0.323748     -0.003015
O       2.13785      9.73240      0.46537        -0.764029     -0.176704     -0.117828
O       2.19324      9.83852     12.91632        -1.040597     -0.377195     -0.173319
O      13.34477      9.75370      0.49382         1.422018     -0.229464     -0.576224
O      13.57677      9.61916     12.84900        -0.136633      0.781790      0.632548
O       1.91470      9.67507      4.73225         0.329926      0.675608     -1.095702
O      13.71281      9.72969      4.58267        -0.599674     -0.038567     -0.363348
O       1.81261      9.78537      8.77695        -0.560981      0.084845      1.245087
O      13.52383      9.72357      8.78057         1.044793     -0.645356      0.280082
O       6.15751      1.77201      0.47284        -1.348069     -0.091371      0.089949
O       5.70359      1.98529     13.02555         0.427448     -0.682985      0.388791
O       5.70682     13.69137      0.42386         0.207763     -0.096233      0.819949
O       5.78168     13.70180     13.04793        -0.488575     -0.308179     -0.903864
O       5.80257      1.99833      4.49310        -0.056571     -0.376434      0.324170
O       5.93502     13.42028      4.64437        -0.857153      0.926785      0.232053
O       5.69256      2.05392      8.69375         0.045027     -0.707462      0.033043
O       5.84098     13.61718      8.78736        -0.450333      0.421403      0.381542
O       5.79322      5.91163      0.42010         0.230584     -0.402221      0.252497
O       5.90337      6.09548     12.91970        -0.800847     -1.040926      0.048625
O       5.97062      5.80099      4.61227        -0.598293     -0.217253      0.910186
O       6.04626      6.08588      8.75749        -0.833069     -1.635258      0.688622
O       5.89839      9.93278      0.31855        -0.160948     -1.068086     -0.018001
O       5.89018      9.77467     12.88430        -0.307018     -0.644826      0.200116
O       5.74249      9.83987      4.58121        -0.078975     -0.293608     -0.043847
O       5.84070      9.48662      8.81122         0.113499      1.050589     -0.608293
O       9.75160      1.79146      0.38876        -0.338917     -0.052919     -0.747446
O       9.73286      1.80181     12.91308         0.414556      0.774278     -0.353072
O       9.61420     13.61106      0.37711         0.389182      0.095604      0.110358
O       9.58124     13.55912     12.93056         0.634936      0.394342      0.709418
O       9.69926      2.04471      4.61071        -0.447144     -0.281136     -0.397048
O       9.72908     13.65138      4.65393        -0.128874      1.035987     -0.573244
O       9.65745      1.88776      8.73143         0.624381     -0.035377     -0.275944
O       9.68607     13.44142      8.71242        -0.304116      1.406345      0.716260
O       9.67693      6.05416      0.33246         0.262238     -0.588853      0.942764
O       9.68544      5.55582     13.03528         1.264537      0.797270     -0.417586
O       9.63542      5.75108      4.48876         0.569235      0.750201      0.532291
O      10.00124      5.61950      8.80687        -0.377467      0.729601     -0.178536
O       9.69906      9.83755      0.51850        -0.711427     -0.182976     -0.560936
O       9.82336      9.63525     12.83943        -0.501294      0.043196     -0.436510
O       9.78803      9.86512      4.63524        -0.245977     -1.122354     -0.590055
O       9.86735      9.70778      8.79995        -0.915030     -0.135111     -1.362634
O       3.80123      1.93037      2.41159         1.697892     -0.777402      0.490573
O       3.90963      1.79188     14.85496        -0.887659      0.412437      1.398598
O       3.88719     13.77851      2.49866         0.875848     -0.858233      0.627097
O       3.80077     13.61185     14.77354         0.883734      0.053311      1.117640
O       0.09041      1.74398      2.45678        -1.927783      0.679774      0.819403
O      15.55818      2.05025     15.09964        -0.088814     -1.279552     -0.334035
O       0.05983     13.59207      2.47204        -1.180902     -0.501457      0.627922
O      15.59452     13.23039     14.80532        -1.171598      2.291630      0.122229
O       3.93324      1.95730      6.70960        -0.489224     -0.177569      0.153507
O       3.93428     13.67588      6.68653        -0.885762      0.239392      0.311139
O      15.51461      1.85227      6.79949         0.665036      0.112428     -1.382473
O      15.60521     13.46355      6.79401        -1.410155      1.046974     -0.328352
O       3.88756      1.91781     10.76985        -1.102834      0.484714      0.226257
O       3.86685     13.52742     10.87093        -0.806876      0.749787     -0.072607
O       0.04531      1.92559     10.88823        -0.819949     -0.310397     -0.252446
O      15.50149     13.51199     10.87678         0.453433      0.428041     -0.843462
O       3.84310      5.79987      2.54100         0.068468      0.209046     -0.001123
O       3.87390      5.68143     15.10207         0.682797      0.620857     -0.815696
O       0.05020      5.83114      2.63567        -0.498207     -0.112726     -0.519361
O      15.59559      5.75245     15.09637        -0.070667      1.042415      0.066466
O       3.87908      5.92583      6.83915         1.844423     -0.958492     -0.239525
O      15.42084      5.75291      6.88348         1.232116      0.945690     -0.775926
O       3.78733      5.76525     10.82478         0.956617     -0.322499      0.017172
O       0.09426      5.60737     10.87008        -1.266401      1.681878     -0.200517
O       3.83701      9.74307      2.63400         1.086086     -0.827704     -0.477889
O       3.95651      9.82711     15.09098        -1.265477     -0.685320     -0.209321
O      15.58566      9.85865      2.53757         0.308429     -0.695740     -0.435020
O      15.56978      9.65526     15.02552         0.530957      0.234873     -0.075357
O       3.96364      9.76797      6.93806        -1.854434     -0.210640     -1.178115
O      15.56933      9.72075      6.64096        -0.090783     -0.004403      0.502383
O       3.91269      9.81713     10.76855        -0.169441      0.008515      0.561673
O      15.44741      9.72790     11.14463         1.645132     -0.011358     -1.419235
O       7.74073      2.02622      2.53539         2.629173     -0.472352      0.384366
O       7.84359      2.06866     15.00931        -0.473777     -0.953576     -0.335915
O       7.81304     13.75224      2.61877        -0.516837     -0.851052     -0.533794
O       7.70043     13.57868     14.97694        -0.029478      0.248867      0.919704
O       7.75479      1.91826      6.96990        -0.313444      0.753216     -1.626985
O       7.69476     13.31070      6.65316         0.810162      2.168861      0.230300
O       7.88504      1.74701     11.13084        -0.919492      1.750088     -2.499442
O       7.66073     13.61312     11.00047         0.695053      0.134739     -0.613711
O       7.81297      5.65263      2.43443        -0.673048      1.462279     -0.055315
O       7.88450      6.02573     14.82421        -1.765703     -0.506112      1.207530
O       7.90699      5.64021      6.70700        -0.476546      1.157453     -0.386905
O       7.82422      5.72876     10.87044         0.051276      0.864377     -0.302765
O       7.66119      9.56425      2.63720         1.174517      0.738063     -0.838875
O       7.73006      9.62599     14.90948         1.219050      0.544867      0.130878
O       7.80266      9.79064      6.65230        -0.468209     -0.234352      0.171094
O       7.76563      9.67315     10.71402         0.427814     -0.233567      0.842769
O      11.57674      2.25882      2.27200         0.067078     -1.876651      1.092654
O      11.74349      2.02108     14.95863        -1.311323     -0.269629      0.184444
O      11.60241     13.63655      2.57914         0.549545      0.794444     -0.533740
O      11.74122     13.67827     14.88904        -0.748575     -0.100073      0.378384
O      11.55882      1.89866      6.51337         1.767091     -0.697286      0.972945
O      11.67008     13.59722      6.70939        -0.253181      2.260106      0.433166
O      11.68100      1.75112     10.94086        -0.135840      1.015018     -0.826113
O      11.51389     13.57868     10.91597         1.866659      0.300727     -0.530720
O      11.68725      5.62438      2.75118        -0.315941      1.747795     -1.775395
O      11.86389      5.98697     15.20246        -1.937025     -1.528481     -1.265590
O      11.76117      5.96493      6.83256         0.001064     -1.030560     -1.035507
O      11.78643      5.90530     10.99535        -1.568303     -0.613301     -0.421633
O      11.60065      9.81127      2.35821         0.927203     -0.113070      1.437181
O      11.69705      9.70209     14.96181        -1.090802      0.537697     -0.280038
O      11.56730      9.57832      6.79015         1.483310      0.307669     -0.400725
O      11.62887      9.82510     10.72933         1.276315     -1.344687      1.114845
O       1.89549      3.87779      2.37050         0.111295     -0.044946      0.721125
O       1.81429      3.85321     15.27329         1.378167     -1.144737     -1.587659
O       2.06421     15.52897      2.67352        -0.830416      0.009170      0.662306
O       1.77904     15.57778     15.06067         0.498899      0.036074     -1.143127
O      13.50913      3.76794      2.67882         1.715288      2.021638     -0.768684
O      13.73676      3.81976     15.23673        -1.128765      1.333480     -1.669908
O      13.75669     15.47795      2.29005        -0.794513      1.413188      1.105355
O      13.58800     15.49446     15.10852         0.612410      1.297293     -0.495563
O       1.93433      3.87267      6.64225         0.249958      0.404787      0.768345
O       1.86189     15.58560      6.67996         0.706765     -0.215677      0.255720
O      13.71817      3.74502      6.55003        -0.931557      1.792384      0.764325
O      13.59880     15.57900      6.58245        -0.135494     -0.188011      0.387683
O       1.90099      3.75040     10.77032         0.849807      1.015397      0.310453
O       1.94557     15.58723     10.82900         0.327816     -0.281779     -0.828921
O      13.52238      3.80398     10.78797         0.175422      1.207503      0.409814
O      13.52284     15.57641     10.92251         0.622218     -0.539246     -1.094845
O       1.84294      7.78730      2.78269         0.819603      0.336101     -1.769784
O       1.92631      7.77282     14.97292         0.360955      0.123626      0.438022
O      13.50863      7.67608      2.59293         0.170375      0.705745      0.247764
O      13.54852      7.83823     15.05917         1.410135     -0.102441     -0.024088
O       2.01993      7.81637      6.58755        -0.652071      0.041096      1.323578
O      13.55845      7.75071      6.77732         0.943357      0.436076     -0.496627
O       2.13417      7.95163     10.78516        -1.487262     -2.098352      0.422171
O      13.65595      7.78764     11.14965         0.236535     -0.433388     -2.350007
O       2.21452     11.61616      2.60086        -1.627310      1.381661     -0.545398
O       1.75894     11.69939     15.00451         2.001292     -0.484605      0.038777
O      13.62237     11.65161      2.45223         0.013404      1.042442      0.479821
O      13.58378     11.64025     15.23344         0.480517     -0.284735     -1.815659
O       1.83803     11.77308      6.64284         1.251411     -2.067947      0.914487
O      13.29660     11.66820      6.75939         2.215908     -0.606329     -0.724715
O       2.01506     11.65344     10.88459        -1.061483      0.893719      0.191984
O      13.49773     11.65795     10.84559         0.672177      0.220599      0.104106
O       5.67853      3.76278      2.47018         0.588982      0.770885      0.129270
O       5.98095      3.83143     15.08509        -0.986420      1.243514     -0.389195
O       5.89936     15.49012      2.68447        -0.195392      1.731410     -0.151679
O       5.79830     15.51460     15.09734         0.229291      0.767405     -0.021639
O       5.95056      3.86478      6.72769        -1.504290      0.730612     -0.379928
O       5.86793      0.08253      6.56083        -0.007403     -2.086086      0.670944
O       5.99904      3.84339     10.97006        -1.642872      0.054026     -1.137681
O       5.67882      0.04455     10.88174         0.105347     -0.239572     -0.635496
O       5.79815      7.64069      2.64285         0.289132      0.873590     -0.588287
O       5.84117      7.75259     15.15377        -0.816290      0.417130     -0.571146
O       5.90094      7.85622      6.84197        -0.188167     -0.937604     -1.507946
O       5.75317      7.72550     10.82432         0.088927     -0.275157      0.818847
O       5.81313     11.63137      2.50583         0.156399      0.931884     -0.348069
O       5.73011     11.67202     15.13529         0.360655      0.258218     -0.565057
O       5.82167     11.71470      6.71373        -0.984529     -0.865942      0.395284
O       5.82062     11.68582     10.97791         0.258580      0.112334     -0.522145
O       9.62088      4.00035      2.49261         0.548477     -1.530288     -0.565489
O       9.65721      3.98877     15.31957         1.296059     -1.056563     -1.506772
O       9.59966      0.07340      2.62250         1.060710     -1.757456     -0.282972
O       9.58387      0.01863     15.03532         0.739286      0.072804     -0.338582
O      10.04514      4.04192      6.71578        -1.135362     -2.092865     -0.348606
O       9.47746      0.07099      6.68033         0.936044     -0.764524     -0.007019
O       9.72907      3.81122     10.91740         0.754482      0.032513     -0.308982
O       9.71614     15.52783     11.05765         0.057379     -0.585706     -1.717299
O       9.90166      7.79978      2.55138        -0.979289     -0.961759     -0.010984
O       9.70551      7.84837     15.08496         0.427816      0.614336     -0.645004
O       9.83438      7.73986      6.79234        -0.996135     -0.700755     -0.696445
O       9.74199      7.69575     10.86397         0.072718      0.859401     -0.089258
O       9.79647     11.78655      2.57784        -1.252201     -2.320346     -0.240676
O       9.61351     11.77530     14.85616         0.247558     -2.034385      0.698159
O       9.90210     11.82535      6.56289        -0.837869     -1.440213      0.903438
O       9.74753     11.57745     10.88032        -0.652553      1.095760      0.251530
