  # total energy = -7882.02115512 
CRSYTAL
PRIMVEC
    15.464    0.0000000000000000    0.0000000000000000
     0.0000000000000000   15.464    0.0000000000000000
     0.0000000000000000    0.0000000000000000   17.350608
PRESSURE
-0.014893 -0.170969 -1.08767 -0.399364 -0.030632 -0.028677
PRIMCOORD
320 1
Pb       3.85732      4.00572      4.27317         0.064398     -0.613059      0.794802
Pb       3.87772      3.97314      0.05677         0.126589     -0.687144     -0.264707
Pb       3.76294     15.38157      4.27762         0.824847      0.121503      0.054000
Pb       3.85081     15.42579     17.16170         0.355718      0.055370      0.610676
Pb       0.18614      3.78960      4.36570        -0.545732     -0.017471     -0.261796
Pb      15.46315      3.73504     17.32031        -0.614660      0.315086      0.481213
Pb       0.16358     15.44540      4.30958        -1.221354      0.256832     -0.278347
Pb       0.04974     15.34603     17.26372        -0.777368      0.272812      0.385692
Pb       3.73044      3.94945      8.60564         0.486428     -0.188136      0.047333
Pb       3.74249     15.35815      8.74367         0.751686      0.208358      0.205730
Pb       0.01364      3.72880      8.62073        -0.422299      0.311445      0.002655
Pb      15.41922     15.36823      8.53012         0.037628      0.620038      1.322616
Pb       3.67125      3.83296     12.95425         0.993975     -0.024659      0.213976
Pb       3.77792     15.28145     13.01236         0.602572      0.763418     -0.208490
Pb       0.06931      3.90492     12.97333        -1.116288      0.498079      0.474328
Pb       0.00451      0.13759     12.95170        -0.394445     -0.470049      0.072967
Pb       3.71161      7.83194      4.30006         0.958675     -0.341143      0.282689
Pb       3.65229      7.57329      0.04242         0.564948      0.617201      0.096881
Pb      15.36633      7.70923      4.23467         0.545239     -0.084770      0.549100
Pb      15.41584      7.67218     17.34275         0.068807     -0.345492      0.143808
Pb       3.99331      7.84214      8.56374        -0.320839     -0.167765      0.521744
Pb       0.16681      7.64153      8.51209        -0.414072      0.553294      0.908800
Pb       3.77640      7.61013     13.06251         0.140726      0.395543     -0.333017
Pb       0.03347      7.88938     12.99310        -0.567714     -0.796840      0.261114
Pb       3.79008     11.64168      4.24558         0.529403     -0.080227      0.493690
Pb       3.77724     11.60879     17.27034         0.554199     -0.174524      0.082677
Pb       0.02852     11.55511      4.25078        -0.204447      0.169164      0.543479
Pb       0.09059     11.60054     17.21650        -0.452998     -0.324413      0.253027
Pb       3.84176     11.61815      8.45378         0.223020      0.030780      1.407168
Pb      15.37284     11.49205      8.59909         0.452440      0.030620     -0.278730
Pb       3.76220     11.52934     13.01801         0.695096     -0.171495      0.080696
Pb      15.45729     11.84662     12.86826        -0.470847     -1.437946      1.633653
Pb       7.62434      3.78801      4.27198         0.189918      0.403909      0.564592
Pb       7.72776      3.97594     17.28224        -0.115321     -0.451973      0.259004
Pb       7.79693     15.41842      4.30381        -0.113403     -0.210729      0.448964
Pb       7.65999     15.37131     17.23652         0.228510      0.575438      0.362435
Pb       7.67568      3.89919      8.76152        -0.070271      0.080905     -0.188169
Pb       7.62827      0.14829      8.66803        -0.048372     -0.760875      0.645229
Pb       7.59183      3.81307     12.91735         0.582486      0.037845      0.266916
Pb       7.80625      0.00827     12.93743        -0.034501      0.012914     -0.043434
Pb       7.66039      7.75615      4.30845         0.178960     -0.279973      0.318289
Pb       7.71231      7.65553     17.29090         0.209809     -0.052503      0.622512
Pb       7.80174      7.73383      8.64883        -0.432886     -0.173518     -0.122519
Pb       7.52214      7.68774     12.98078         1.138575     -0.182840      0.545204
Pb       7.78579     11.57444      4.21583         0.182552      0.120791      0.735947
Pb       7.73372     11.49408     17.28461        -0.189994      0.029497      0.088660
Pb       7.59448     11.61623      8.65588        -0.032005      0.028315      0.210538
Pb       7.74683     11.54602     13.05186         0.033332     -0.005050     -0.382840
Pb      11.51136      3.80201      4.29416        -0.004868     -0.095185      0.366602
Pb      11.57674      3.89218      0.06616         0.155482      0.091091      0.044504
Pb      11.63952     15.39863      4.22198        -0.193107      0.063152      0.654956
Pb      11.51076      0.11604     17.32744         0.385728     -0.164479      0.666440
Pb      11.70896      3.93387      8.56275        -0.421388     -0.761102      0.304268
Pb      11.54885     15.40926      8.66138        -0.072676      0.610496      0.130161
Pb      11.59734      3.85681     13.04222        -0.217301      0.315740     -0.133340
Pb      11.71041     15.41161     12.95443        -0.605506     -0.052568      0.244502
Pb      11.73544      7.69487      4.33411        -1.443241      0.441534      0.118518
Pb      11.73230      7.82503     17.21324        -0.929262     -0.894227      1.047554
Pb      11.69245      7.71389      8.67150        -0.671807     -0.114261      0.059364
Pb      11.57446      7.82665     13.04526        -0.047541     -0.462608     -0.231911
Pb      11.66647     11.39992      4.26859        -0.978520      0.552348      0.698701
Pb      11.51021     11.52510     17.17910         0.417829     -0.275678      0.830540
Pb      11.44831     11.48419      8.57893         0.016449      0.379706     -0.105551
Pb      11.64125     11.59610     12.95991        -0.663808      0.107222      0.393523
Ti       2.05441      1.86932      2.22680        -1.594547      0.260579      1.055760
Ti       1.84328      1.89370     15.36260         1.285056      0.091524     -0.286418
Ti       1.93308     13.47202      2.24229        -0.229037     -0.239888      1.046172
Ti       1.94834     13.51857     15.18987        -0.169252     -0.625419      0.219504
Ti      13.57605      1.94968      2.35355        -0.377716     -0.952122     -1.100255
Ti      13.45342      1.90658     15.29982         0.370715     -0.090419      1.074024
Ti      13.55289     13.45935      2.39530        -0.141562      0.797732     -0.576758
Ti      13.47066     13.51227     15.38962         0.537907      0.004300     -1.530020
Ti       1.92664      1.93660      6.69909        -0.161835      0.107816     -0.250164
Ti       1.88039     13.58387      6.60385         0.856084     -1.206840      0.675306
Ti      13.55029      1.89430      6.64036        -0.618402      0.564855      0.101040
Ti      13.53037     13.57072      6.65148        -1.098190     -0.196020     -0.851289
Ti       1.87162      1.93260     11.05510         0.206881     -0.476898     -1.647376
Ti       1.84022     13.47258     10.96926         2.004517      0.764090      0.862934
Ti      13.47874      2.01927     11.05430        -0.079365     -1.048871      0.368414
Ti      13.49072     13.53386     10.87978        -0.740788      0.676668      0.446187
Ti       1.88429      5.77779      2.37895        -0.420827     -0.155947     -1.665187
Ti       1.85529      5.67768     15.32565        -0.376304      1.216216      0.603599
Ti      13.40431      5.76146      2.50324         0.772692     -0.019414     -2.605682
Ti      13.49790      5.76955     15.40487         0.571615     -0.623398     -1.301968
Ti       1.84854      5.89293      6.63303         0.995847     -1.618511     -0.873366
Ti      13.47614      5.92154      6.66023         0.338315     -1.687276     -0.778294
Ti       1.94652      5.83445     10.92148        -0.910087      0.386259      0.227612
Ti      13.57428      5.81641     10.96042        -0.401012     -0.422732      0.615888
Ti       1.91465      9.64346      2.30785        -0.690391     -0.076898     -1.067347
Ti       2.01475      9.54594     15.34651        -0.686064      0.502505     -0.285701
Ti      13.53072      9.69986      2.31408        -0.892694     -1.114622      0.334220
Ti      13.61623      9.64144     15.35335        -0.096362      0.106712     -1.067605
Ti       1.93107      9.73809      6.52843         0.293122     -0.448999      0.843732
Ti      13.53256      9.67701      6.65094        -0.310626     -0.367505     -0.154492
Ti       1.82665      9.64663     11.01441         1.629997     -0.203326     -1.039516
Ti      13.48797      9.70045     11.00636        -0.339692     -0.783277      2.092736
Ti       5.71901      1.86234      2.29394         0.632695      0.447715      0.149337
Ti       5.79482      1.91550     15.36606        -0.096541      0.132795     -0.383616
Ti       5.82767     13.52626      2.27005        -0.380816      0.124721     -0.501305
Ti       5.86199     13.45535     15.33651        -0.266251     -0.302152     -0.453315
Ti       5.64885      1.94848      6.69701         0.570754      0.220168      1.001788
Ti       5.78037     13.57232      6.66640         0.185245      0.083869      0.514864
Ti       5.69791      1.88122     11.05895         0.821251     -0.363580     -0.100598
Ti       5.82563     13.46034     11.12027         0.105459      0.180452     -1.871885
Ti       5.76315      5.80206      2.36364         0.525781      0.312538      0.236929
Ti       5.70767      5.76748     15.36393         0.376315     -0.049834     -1.226068
Ti       5.75676      5.81422      6.73332         0.516939     -0.136038     -0.715693
Ti       5.79970      5.78645     10.99361         0.132138     -0.543075     -0.862724
Ti       5.71199      9.69921      2.34601         0.796462     -0.896946     -0.051779
Ti       5.78553      9.55836     15.42427        -0.538567      1.010050     -0.428849
Ti       5.76684      9.71801      6.59486         0.567100     -1.623712     -1.541407
Ti       5.68702      9.64716     11.09874        -0.089598      0.583143     -0.626687
Ti       9.59319      1.90018      2.41837         0.793068      0.036084     -0.431804
Ti       9.66479      1.94874     15.35839        -0.836815     -0.505775     -1.194843
Ti       9.72192     13.47886      2.27575        -0.589367     -0.131556      0.877256
Ti       9.76390     13.51260     15.37585        -1.319396      0.588885     -0.877535
Ti       9.57959      1.91289      6.73237         0.706932      0.148646     -0.429956
Ti       9.65036     13.48995      6.72017        -0.527621      0.203299     -1.042569
Ti       9.68940      1.98481     10.96010         0.009101     -0.635067      0.301580
Ti       9.68321     13.51624     10.95600        -0.257829     -0.298342      0.727156
Ti       9.61949      5.76122      2.32279        -0.076170      0.743248     -1.016413
Ti       9.69925      5.73412     15.35100        -0.529797      0.948844     -1.815598
Ti       9.60142      5.74350      6.73173        -0.366588      0.244217     -0.084442
Ti       9.67184      5.77113     10.99185         0.259325     -0.325202     -0.124202
Ti       9.58045      9.56491      2.28889         1.144680     -0.134631      0.547669
Ti       9.63274      9.55451     15.31850        -0.054724     -0.301204      0.647321
Ti       9.63807      9.57780      6.63102        -0.611859      0.366313     -0.208968
Ti       9.56658      9.60807     10.97607         0.162653      0.430210      1.769317
O       1.93753      1.73753      0.51121        -0.061804      0.383548     -0.490295
O       1.90132      1.80965     13.56774        -0.139072      0.281522      0.478622
O       1.94397     13.37850      0.51622        -0.167487      0.336088     -0.686975
O       1.94532     13.53784     13.38597        -0.188037      0.138002      1.374220
O      13.57416      1.84777      0.54056        -0.253069      0.218670      1.016870
O      13.47310      1.87340     13.55730         0.345855     -0.051385      0.147381
O      13.55614     13.41047      0.62111        -0.120603      0.107176      0.512327
O      13.25470     13.47285     13.59061         1.052073     -0.089706      1.164162
O       1.85853      1.88501      4.90306         0.237390     -0.122206      0.337477
O       1.92674     13.38754      4.86479        -0.010124      0.704837     -0.053334
O      13.65428      1.65913      4.89972        -0.266343      0.747666      0.213910
O      13.63476     13.58665      4.85992        -0.359617     -0.172332      1.141692
O       1.80663      2.00527      9.23703         0.308400     -0.035106      1.556212
O       2.05798     13.43614      9.25104        -0.675962     -0.114179     -0.525543
O      13.48460      1.97583      9.31035         0.333758      0.268003     -0.313821
O      13.52643     13.62264      9.10839         0.139458     -0.899060      0.769692
O       2.00636      5.86590      0.52338        -0.643196     -0.352637      1.604985
O       1.85859      5.84475     13.57494         0.117905     -0.332827     -0.323668
O      13.48032      5.87550      0.62656        -0.336063     -0.442250      1.426674
O      13.64437      5.67411     13.62963        -0.366160      0.357081      1.174516
O       1.87317      5.70675      4.83744         0.212824      0.321266      0.066910
O      13.36768      5.95621      4.85101         0.634803     -0.466116      0.673896
O       1.86017      5.92773      9.15435         0.098309     -0.668834     -0.173566
O      13.59146      5.74064      9.17352        -0.052809      0.297578      0.294781
O       1.92648      9.66601      0.50692        -0.154534     -0.116001      0.868812
O       2.02581      9.62003     13.53614        -0.446328     -0.321735      1.074107
O      13.36203      9.62298      0.58269         0.529280      0.095401     -0.834963
O      13.70294      9.60441     13.57301        -0.360457      0.087406      0.411427
O       2.02462      9.70530      4.76254        -0.230344     -0.267820      0.401232
O      13.51916      9.54490      4.89965         0.053741      0.239109      0.447773
O       1.90572      9.61819      9.22056        -0.096713      0.295370      0.937017
O      13.49067      9.64374      9.30631        -0.029642      0.289564     -1.632496
O       5.70556      2.03073      0.54048         0.179763     -0.414581      0.587881
O       5.89208      1.87384     13.60412        -0.404538      0.471783      0.049421
O       5.64561     13.49002      0.47970         0.748101      0.073285      1.214921
O       6.03349     13.33101     13.57468        -0.729960      0.542752      0.370481
O       5.57559      2.00454      4.96260         0.210497     -0.341513      0.369325
O       5.74483     13.50164      4.93934        -0.001910      0.343498     -0.519410
O       5.67401      1.72536      9.31700        -0.068201      0.349735      0.126037
O       5.79994     13.39312      9.23726        -0.129516      0.184774      1.368051
O       5.79826      5.73496      0.60630        -0.442042     -0.110479     -0.279656
O       5.69815      5.77955     13.53783        -0.042850     -0.126225      1.452968
O       5.80743      5.85695      4.93253         0.013945     -0.600059      0.062765
O       5.92915      5.80878      9.19198        -0.862439      0.226549      1.326444
O       5.80972      9.62945      0.60266         0.048928      0.333094      0.172907
O       5.75976      9.70980     13.63349         0.060471     -0.486688      0.624044
O       5.67030      9.52188      4.77590         0.024815      0.518730      1.149694
O       5.60190      9.73843      9.31506         0.136077     -0.482535      0.215182
O       9.68426      2.00633      0.66481        -0.206301     -0.239120     -0.082221
O       9.73474      1.83513     13.58910        -0.465453      0.087830      0.796811
O       9.72893     13.52879      0.52171        -0.097707     -0.221477     -0.093284
O       9.87016     13.64861     13.60597        -0.583868     -0.436471      0.912424
O       9.52511      1.84269      4.91798         0.358034      0.367978      0.837701
O       9.58758     13.57618      4.92507        -0.112541     -0.151140      1.287069
O       9.84074      1.99611      9.19789        -0.503768      0.012348      0.784705
O       9.76288     13.54964      9.21691        -0.305799     -0.611748     -0.642099
O       9.69398      5.70567      0.50879        -0.161688     -0.335981      0.664666
O       9.59227      5.66698     13.53164         0.350476      0.487130      1.613912
O       9.52246      5.77363      4.99075         0.149023     -0.121914     -0.147676
O       9.65590      5.67585      9.16294        -0.015690      0.538537      1.453740
O       9.63267      9.58894      0.52685        -0.019626      0.340336     -0.077015
O       9.52612      9.63077     13.60261         0.155522     -0.464944     -0.399547
O       9.59742      9.55035      4.88395         0.274414      0.265159      0.100205
O       9.69121      9.52333      9.25544         0.063334      0.446584     -0.634070
O       3.84065      1.84175      2.77500        -0.260212     -0.052982     -0.397907
O       3.79814      1.92395     15.87524        -0.370498      0.005366     -0.925399
O       3.80865     13.43880      2.71154         0.560271      0.163860     -0.107446
O       3.90524     13.50074     15.67379        -1.488577      0.124270     -0.628852
O      15.42689      1.92311      2.73068         1.022680     -0.375000      0.001566
O      15.43014      1.80067     15.85172         0.204966      0.579020     -0.769607
O       0.03893     13.41927      2.74396        -0.382115      0.123041     -0.317263
O      15.46047     13.49168     15.65497         0.434843     -0.097301     -0.188097
O       3.75210      1.93383      7.25484         0.721109     -0.166240     -0.600146
O       3.81378     13.66334      7.00081        -0.029109     -0.833112     -0.067632
O       0.06686      1.85432      7.14407        -1.010007     -0.099543     -0.274817
O      15.40232     13.39597      7.01850         0.815592      0.441049      0.196673
O       3.82597      1.92548     11.48459        -0.752768      0.076755      0.007814
O       3.91774     13.58930     11.50500        -0.881279     -0.641919     -0.441520
O      15.43358      1.90941     11.48688         0.562956      0.129916     -0.227874
O       0.00048     13.50876     11.36877        -0.901654      0.230579     -0.797011
O       3.84083      5.66490      2.61615        -0.270484      0.797785      0.336967
O       3.74955      5.79079     15.76883         0.798970     -0.076551     -0.140849
O      15.42787      5.76512      2.77763         0.483160     -0.074401     -0.031717
O       0.00729      5.65967     15.94579        -0.639085      0.525912     -0.617805
O       3.88468      5.71688      6.95317        -1.141177     -0.031610      0.528139
O      15.44879      5.82683      6.91601         0.120220      0.403819      0.227523
O       3.79868      5.76421     11.27168         0.172626      0.023518      0.287420
O      15.40165      5.71770     11.43678         0.688194      0.403534     -0.490243
O       3.78012      9.60483      2.65776         0.958619      0.445318     -0.021909
O       3.86126      9.59617     15.89933        -0.670620     -0.051428     -0.798214
O      15.38198      9.61336      2.69012         1.137488      0.150149     -0.012645
O      15.45896      9.55393     15.82532         0.340244      0.439555     -0.308007
O       3.80632      9.63217      7.09805         0.141206      0.076856     -0.768011
O       0.05772      9.59948      7.00722        -0.525209      0.430175     -0.096095
O       3.81935      9.56841     11.57995        -0.334419      0.230698     -0.517780
O      15.44950      9.68035     11.34151        -0.546740     -0.022329      0.099822
O       7.64324      1.86326      2.88268         0.476463      0.336850     -0.959574
O       7.72894      1.87680     15.76331        -0.201702      0.388582      0.070905
O       7.67503     13.64471      2.78034         0.511187     -0.833406     -0.876356
O       7.69009     13.51887     15.79090         0.860476     -0.132413     -0.014589
O       7.64703      1.93277      7.21364         0.431292      0.152966     -0.760753
O       7.67236     13.37203      7.17632         0.204886      0.972172     -0.640055
O       7.66033      1.95933     11.27880         1.009231     -0.469897      0.316030
O       7.79165     13.37297     11.43077        -0.193611      0.383579     -0.107753
O       7.75403      5.72470      2.61191        -1.134176     -0.196496      0.435045
O       7.59527      5.83727     15.75514         0.552477     -0.449410     -0.214612
O       7.67054      5.80571      7.28752         0.711843     -0.159928     -0.941481
O       7.70074      5.81516     11.41975         0.023016     -0.375905     -0.206943
O       7.75837      9.58695      2.81447        -0.777610      0.188198     -0.673443
O       7.69588      9.47597     15.83992         0.271957      1.034467     -0.483908
O       7.66601      9.63273      6.93729        -0.193161      0.068167      0.395462
O       7.60247      9.65300     11.37125         0.927108     -0.318880      0.054752
O      11.60933      1.94244      2.69141        -0.196550     -0.180572      0.526482
O      11.53827      1.89243     15.76086         0.530178      0.062178      0.071537
O      11.50659     13.34864      2.82643         1.283187      0.440839     -0.455107
O      11.59487     13.46108     15.77946         0.028779      0.182400      0.302932
O      11.60600      1.94232      7.15301         0.392233      0.027155     -0.975490
O      11.58730     13.51433      7.02915         0.137022     -0.075762     -0.021943
O      11.62576      1.88103     11.56984        -0.609490      0.412405     -0.995166
O      11.61525     13.39897     11.30124         0.476414      0.292559     -0.087596
O      11.47762      5.82123      2.81459         1.506331     -0.579644      0.087786
O      11.57698      5.84488     15.71235         0.396578     -0.790265     -0.085371
O      11.60834      5.79649      7.03422         0.123122      0.359755      0.080191
O      11.56050      5.59434     11.33872         0.414255      0.510634     -0.051236
O      11.62752      9.66754      2.79286        -0.547242     -0.422835     -0.427134
O      11.60453      9.48284     15.58897        -0.064576      1.162405     -0.052474
O      11.56195      9.52013      7.07664         0.651616      0.609877     -0.075993
O      11.55758      9.64663     11.55250         0.379943     -0.300455     -0.778276
O       1.92268      3.80854      2.60046        -0.074364     -0.084793      0.172579
O       1.85277      3.84251     15.66702         0.181213     -1.315097      0.067386
O       1.91454     15.38089      2.72787         0.134074      0.214005     -0.459554
O       1.88306     15.40189     15.74094         0.304846     -0.513548     -0.592412
O      13.50288      3.85142      2.70401        -0.216239      0.095436      0.371613
O      13.43659      3.78342     15.77212         0.404896      0.185013      0.126138
O      13.46151     15.36333      2.76145         0.409805     -0.109572     -0.568303
O      13.55261     15.42837     15.61735        -0.451062     -0.368130      0.520909
O       1.83921      3.83209      7.02935         0.245894      0.441782      0.028886
O       1.91495     15.40404      7.18109        -0.393359      0.175440     -0.999095
O      13.66411      3.85175      6.93520        -0.373917      0.053894      0.069623
O      13.53769      0.03642      7.17917         0.068292     -1.062313     -0.683462
O       1.86647      3.91959     11.49449         0.311458     -0.698484     -0.771354
O       1.91243     15.46049     11.30849        -0.065337     -0.024642      0.213982
O      13.57353      3.79857     11.58214        -0.187765      0.949256     -0.796458
O      13.54141     15.40361     11.39939         0.111216     -0.421004     -0.252561
O       1.90449      7.73425      2.67968        -0.028931     -0.621042      0.048767
O       1.82842      7.67735     15.68760         0.359528      0.110227      0.153051
O      13.58774      7.68796      2.86787        -0.861599      0.353557     -0.927507
O      13.55700      7.67567     15.65181         0.329989      0.151939      0.432032
O       2.03810      7.70311      6.98098        -0.419234      0.707742     -0.325492
O      13.54893      7.75246      7.13667        -0.022431      0.020364     -0.183408
O       1.86364      7.71240     11.34747        -0.020320     -0.061118      0.195618
O      13.42936      7.65888     11.44651         0.325172      0.586337     -0.357161
O       1.87187     11.50997      2.81296         0.288287      0.619706     -0.892547
O       1.89708     11.54710     15.65920         0.303259      0.608441     -0.325360
O      13.49751     11.49824      2.87971         0.538549      1.200227     -0.522140
O      13.56559     11.53691     15.82112        -0.394525      0.158219     -0.473874
O       1.95760     11.57476      6.99714        -0.415523      0.407946     -0.224288
O      13.44895     11.53633      7.01338         0.353214      0.179362      0.200046
O       1.89239     11.59150     11.47882         0.300719     -0.160896     -0.684213
O      13.48546     11.56682     11.54846         0.653620      0.393249     -1.388328
O       5.66131      3.76396      2.87117         0.803979      0.734184     -0.836434
O       5.68100      3.83721     15.82670         0.318761      0.865336     -0.457674
O       5.79283     15.44512      2.69852        -0.761256     -0.450907     -0.085741
O       5.76176      0.01976     15.66827        -0.003951     -0.795339      0.304266
O       5.80083      3.85619      7.22380        -0.427905     -0.594726     -0.447535
O       5.78514     15.45766      7.17651        -0.142870      0.145623     -0.716396
O       5.80757      3.85907     11.34328        -0.608191      0.063713      0.119080
O       5.84012     15.38048     11.53867        -0.104694      0.437552     -0.168542
O       5.78099      7.71655      2.74186        -0.303845     -0.520771     -0.331819
O       5.75102      7.72898     15.81045        -0.459063     -1.226969     -0.367025
O       5.75849      7.72223      7.00435        -0.057531      0.513660      0.494555
O       5.77453      7.64420     11.57708        -0.859939      0.653662     -0.991747
O       5.90163     11.58369      2.79896        -0.741364      0.225112     -0.778621
O       5.70822     11.55842     15.82871         0.761535     -0.257142     -0.223717
O       5.71894     11.51670      6.96074        -0.140747      1.246547      0.184334
O       5.72688     11.59548     11.45088        -0.100015     -1.001588      0.251073
O       9.71498      3.84385      2.80347        -0.552358     -0.393041     -0.000287
O       9.59137      3.88472     15.68871         0.269185     -0.721027      0.445700
O       9.73259     15.41998      2.75381        -0.411275      0.186516     -0.377727
O       9.62066      0.00279     15.89672         0.267422     -0.416917     -0.485654
O       9.67152      3.87394      7.08509        -0.224998     -0.641635     -0.218651
O       9.68999      0.03082      7.16151        -0.589109     -0.557072     -0.337117
O       9.62424      3.78122     11.52367        -0.063743      0.406911     -0.651696
O       9.66077     15.38825     11.31099         0.037387      0.759029      0.089550
O       9.72119      7.68001      2.64629        -0.548098      0.227243      0.071247
O       9.72852      7.65391     15.80509        -0.881395      0.321371     -0.528146
O       9.60114      7.74318      7.07932         0.093527     -0.752556      0.299579
O       9.65081      7.65590     11.40544         0.126198      0.438867     -0.145706
O       9.59199     11.55180      2.68804        -0.124489      0.125963     -0.219034
O       9.57530     11.56790     15.68398         0.249559     -0.229914      0.037331
O       9.58904     11.55581      7.06999         0.697645     -0.092034      0.165274
O       9.67189     11.50724     11.46657        -0.034834     -0.047032     -0.540684
