  # total energy = -7824.69275848 
CRSYTAL
PRIMVEC
    15.6080000000000005    0.0000000000000000    0.0000000000000000
     0.0000000000000000   15.6080000000000005    0.0000000000000000
     0.0000000000000000    0.0000000000000000   16.6239999999999988
PRESSURE
5.30524 5.12703 0.704616 0.249393 0.008083 0.293358
PRIMCOORD
320 1
Pb       4.32984      4.06655      4.28692        -0.452723      0.153198      0.795168
Pb       4.13681      3.75263      0.09709        -0.644080      0.456501     -1.115233
Pb       4.34607      0.14136      4.28408        -1.037520     -0.828466      0.421085
Pb       3.87764      0.12580      0.59958        -0.278626     -0.233365     -2.561839
Pb       0.52552      4.07259      4.28071        -1.509975     -2.620823     -0.593920
Pb       0.09503      3.94452      0.40510        -0.190707     -2.415505     -1.826432
Pb      15.29755      0.01141      4.26776         1.996757      0.414648      0.847919
Pb       0.14005      0.04011      0.12239         0.068620      0.247572     -1.003049
Pb       4.00647      3.66341      8.23564        -0.180144      1.372206     -0.266583
Pb       3.94508      0.03499      8.92345        -0.214191     -1.193321     -1.471092
Pb      15.44745      3.76170      8.20245         0.365664      1.397035      0.441994
Pb      15.02043     15.42340      7.95771         1.243022      1.060324     -0.294928
Pb       3.71379      3.85442     12.25095        -0.655802      1.483515      1.064434
Pb       3.68827      0.51681     12.43213         0.534050     -1.986701      0.374306
Pb       0.27782      3.81297     12.61883        -0.052731      0.598895     -0.035083
Pb      15.15425     15.32035     11.88777         1.199484      0.642903      1.107773
Pb       3.87416      8.29569      4.19587         0.002559     -1.413182      0.361867
Pb       3.94773      8.00313      0.11406        -0.888492      0.449279     -0.591462
Pb       0.26988      7.61563      4.22715        -2.364243      1.497039     -1.931901
Pb       0.18336      8.21960     16.54807         0.402077     -0.174681      0.423856
Pb       4.20513      7.86804      9.01097        -0.422638     -0.566133     -1.612550
Pb       0.06414      7.77661      8.72546        -0.785885     -0.417591     -0.603016
Pb       3.75568      7.37324     12.99586         0.221074      1.137764     -1.725367
Pb       0.07760      7.44838     12.73093         0.091024     -0.369969     -1.035780
Pb       3.56554     12.16855      4.93170         0.917913     -1.005596     -2.465437
Pb       3.27960     12.06090      0.50362         0.949479     -1.973673     -3.136785
Pb       0.17468     11.62799      4.33676        -0.374232      0.287836      0.395559
Pb      15.39375     11.78987     16.31509         0.539033     -0.438144      1.330749
Pb       3.59838     11.49166      8.57355         1.842189      0.820631     -1.581244
Pb      15.30885     11.52366      8.21348         0.640626     -0.661030     -0.418639
Pb       4.35797     11.86623     12.71029        -1.669569     -0.660711     -1.889817
Pb      15.11261     11.90963     12.45411         1.534803     -0.937998     -0.224670
Pb       8.01625      3.99576      3.62175         0.084437      0.033136      1.538878
Pb       7.77421      3.92987     16.44782         0.746788     -0.296027     -0.346789
Pb       8.46382     15.57735      4.12143        -2.127139     -0.152777      0.094871
Pb       7.58882     15.29957     16.58958         0.203752      1.358464     -0.415192
Pb       7.48844      4.03776      8.07735         0.592249      0.186727      0.381108
Pb       7.64965      0.01671      8.40892         0.011786      0.251503     -0.406260
Pb       7.96732      3.92895     12.49796         0.693818      0.299166     -0.116896
Pb       8.12369      0.22643     12.97158        -0.264361      0.129437     -1.070929
Pb       7.50690      7.88139      4.06216         1.124528     -0.509828      0.038477
Pb       7.49376      7.90384      0.28893         1.799563      0.450826     -0.847937
Pb       7.72690      8.06976      8.33978         0.715771     -1.132829     -0.444545
Pb       7.60300      7.94117     12.72840        -0.581123     -0.798984     -0.911921
Pb       7.63724     11.89200      4.06062         0.071467      0.303706      0.958500
Pb       7.94953     12.02170      0.03307         0.107372     -1.718868      0.069313
Pb       7.60309     11.41267      8.08457        -0.297054      1.302066      0.182621
Pb       8.05959     11.48558     12.92208        -1.090630      1.280117     -1.187089
Pb      11.43216      3.64634      3.89157         0.293586      1.774928      0.107167
Pb      11.96815      3.75883     16.54757         0.223002     -0.716697      0.375491
Pb      11.80858     15.15647      4.42676         0.091138     -0.019760     -0.925553
Pb      12.34782     15.60717      0.47731        -0.650972     -1.193570     -1.329891
Pb      11.58581      4.13656      8.67765        -0.026572     -0.339929     -1.285113
Pb      11.61861      0.39439      8.12348        -0.322216     -0.792632      0.013230
Pb      11.57014      3.32799     12.61239         1.715303      2.502827     -0.914511
Pb      11.46705     15.07926     12.14761         0.977917      1.254806      0.891350
Pb      11.08118      7.47352      4.25598         0.833303     -0.459715     -0.012701
Pb      12.16971      7.89370      0.10778        -2.423881     -1.426915     -0.679813
Pb      12.08078      7.45241      9.05765        -0.460236      1.906270     -1.978540
Pb      11.49771      7.59561     12.85006        -0.051651      1.381205     -2.623978
Pb      11.32322     11.38149      3.98730         1.083698      2.025261      0.268657
Pb      11.92679     11.44980     16.26494        -0.756354     -0.139638      1.130055
Pb      11.04214     11.60748      8.29894         2.789837     -1.619068      0.214708
Pb      11.58644     11.50748     12.26336         0.869093      0.219176      0.089871
Ti       2.02211      2.12839      2.13138        -1.851738     -0.609258      0.676708
Ti       2.08116      1.98650     14.56028        -0.650031     -0.833929      1.997826
Ti       1.81922     13.76367      2.23389         0.031533      0.558965      2.507629
Ti       1.89606     13.66472     14.52135         0.466966      0.663363     -0.334849
Ti      13.52866      1.87669      2.44889         1.157630      0.643377     -1.714707
Ti      13.88064      1.84413     14.29269        -1.199204     -1.310271     -0.913220
Ti      13.83871     13.33103      2.43622        -2.523464     -0.227172     -1.342968
Ti      13.71667     13.70104     14.69253        -0.556876      1.729753      0.394808
Ti       2.21367      1.91286      6.47203        -5.431297     -0.529632     -3.099181
Ti       1.68502     13.81907      6.51795         1.000013      1.550430     -1.251570
Ti      13.54040      2.37551      6.24880         0.443564     -0.257040     -0.115680
Ti      13.44732     13.23129      6.17979         1.028415      0.348336     -0.133062
Ti       1.68709      1.68262     10.29958        -0.632493      1.065134      0.239462
Ti       1.95288     13.41110     10.31570        -2.665618      0.584447      1.431194
Ti      13.47825      1.88482     10.19687        -0.157447     -0.497234      1.477634
Ti      13.60199     13.36333      9.95868        -0.893731      0.714765     -1.183665
Ti       2.13429      5.90944      2.00581        -0.611511      0.449553      0.869075
Ti       1.86997      5.86315     14.89327         0.767820     -1.248474     -2.933308
Ti      13.84675      5.63659      1.85257        -1.241843      1.826155      1.105743
Ti      13.69057      5.59700     14.50448         0.409161     -0.428279     -0.925067
Ti       1.72111      5.86227      6.11895         2.184335     -0.978094      1.979924
Ti      13.40468      6.05576      6.00822        -0.123803     -4.403376      3.225511
Ti       1.85522      5.77724     10.28178         2.810722     -0.731151      0.444873
Ti      13.61668      5.46462     10.62917         2.308787      1.426776      0.769668
Ti       1.88366      9.86288      2.31347        -0.955486      0.139600     -0.591074
Ti       1.92588      9.87829     14.16645         0.797469     -2.040384     -1.183800
Ti      13.73379      9.40859      2.29382        -0.302190      0.444197      0.624168
Ti      13.71696      9.45866     14.31549        -0.753796      1.760621     -1.278093
Ti       1.76698      9.56093      6.45170         1.233756      1.191163     -2.643353
Ti      13.43072      9.51600      6.14500         0.111120      1.178604      0.617338
Ti       2.17795      9.58521     10.41801        -3.215275      0.907183      1.829707
Ti      13.80920      9.70679     10.33419        -0.217868     -1.705255     -0.174198
Ti       5.74936      1.94962      2.12422         2.868812     -0.147277      1.165325
Ti       5.93615      2.14485     14.35213         0.139730      0.533481      0.432580
Ti       5.74477     13.69935      2.03072         1.117990     -0.019827      2.124952
Ti       5.68432     13.94709     14.34037         0.809262     -0.334322     -1.311674
Ti       6.05348      1.84299      6.24923         0.563006      1.033925     -1.166639
Ti       5.83921     13.82499      6.25904         0.515022     -1.246773     -0.208427
Ti       5.78962      2.16372     10.38600         2.671789     -2.306329     -0.137956
Ti       6.01737     13.66028     10.23829         0.060047      0.688621     -0.382758
Ti       5.92651      5.83065      1.95032         0.078601      0.651388      1.586517
Ti       5.97857      5.91342     14.50506        -0.139557     -0.458157     -0.955736
Ti       5.64437      6.17840      6.19639         0.193324     -1.935825     -0.956855
Ti       5.65167      5.83102     10.51753         1.407275      1.684547      0.340856
Ti       5.64083     10.04942      1.95922         1.022726     -1.168981      0.454698
Ti       5.76044      9.93208     14.69723        -1.022135     -0.121717     -1.936004
Ti       5.70681      9.80937      6.07095         0.313555      1.260477     -0.227689
Ti       5.99252      9.97323     10.38155        -0.289010     -1.421389      2.525253
Ti       9.70975      1.69752      1.78307        -0.054016      2.090044      0.981823
Ti       9.99843      1.86208     14.83191         0.354135     -0.162597     -3.554122
Ti       9.77188     13.67634      1.78269         1.782679     -2.157090      1.574321
Ti       9.98685     13.57065     14.52888         0.256815      1.312807     -0.012806
Ti       9.85775      2.02090      6.15369        -2.775200      0.350788     -0.559609
Ti       9.67242     13.38360      6.14200        -1.088379      1.677577     -1.358088
Ti       9.60762      2.01000     10.18091         0.219877      0.662707      1.154573
Ti       9.77193     13.67162      9.95559        -0.913946      0.296593      0.551678
Ti       9.90753      5.90589      1.74491         0.332117     -0.006028     -2.027025
Ti       9.90636      5.65600     14.48667        -1.710536     -0.139043     -0.423293
Ti       9.62355      5.74696      6.56333         0.635878      1.371662     -2.507703
Ti       9.43478      5.96416     10.34414        -1.383557     -1.331097      2.165409
Ti       9.79975      9.62779      2.10320        -0.815666      2.011159     -2.374215
Ti       9.56398      9.52933     14.65000         3.320006     -1.249367      3.438911
Ti       9.69191      9.68295      6.11575        -1.225160     -2.573312     -1.207104
Ti       9.80899      9.79702     10.62599        -0.311430     -0.938507     -2.550839
O       2.13354      2.32977      0.17366        -0.242790     -1.084119      1.059541
O       1.70021      1.54030     12.85981         1.313575      0.794263     -1.834643
O       1.44522     13.74663      0.47394         1.506662     -1.599694     -1.583526
O       1.56552     13.47098     12.81831         0.946570      0.435085     -0.560161
O      13.76071      1.87148      0.61395        -0.341792      0.401140     -0.586939
O      13.34143      1.48414     12.40972         1.051144      0.640580      0.304678
O      13.70184     13.52256      0.29900         0.473678      0.413711     -0.309599
O      13.63664     13.56192     12.85626        -0.303922      0.144038     -0.572860
O       1.84238      1.65705      4.55204         0.526131      1.188174     -0.536906
O       1.88986     13.87934      4.51964        -0.198026     -0.630757     -0.310017
O      13.48482      2.12979      4.38816         0.196853     -0.232964     -0.604880
O      13.84456     13.09752      4.39408        -0.200971      2.090139     -2.371171
O       1.85190      1.86529      8.51275         0.682906      0.424051      0.594923
O       1.64870     13.80361      8.66488         0.675019      0.606510     -3.821621
O      13.54968      2.01327      8.36993        -1.581395     -0.463807      0.604076
O      13.41775     13.16796      8.10243         0.533657      0.601649      2.437785
O       1.83950      5.51587      0.09397         0.473514      0.955059      0.104946
O       1.96057      5.71159     12.73776         0.278840      0.833266      1.118635
O      13.68985      5.59933     16.56707         0.125115      0.842749      0.922212
O      13.75848      5.64428     12.60392         0.740562      0.137503     -0.214434
O       1.83221      5.99782      4.02773         0.330883     -0.460822      0.865117
O      13.48012      5.75650      4.37476         0.186566      0.526219     -3.179021
O       1.96717      5.75482      8.45576        -0.224783     -0.356204     -0.719647
O      13.86946      5.75195      8.78162        -0.189391      0.003480      0.667801
O       1.90587      9.86515      0.49946        -0.114400     -0.363332     -1.324677
O       2.05088      9.71958     12.26805        -1.028121      0.268943      1.987970
O      13.56772      9.51318      0.30485         1.670252      1.415213      0.442874
O      13.68806      9.94005     12.43151         0.161807     -0.951169      1.781652
O       1.97597      9.67303      4.25976        -0.189556     -0.228573      0.221671
O      13.36990      9.18434      4.39936         1.218350      0.745062     -1.565316
O       2.26492      9.39085      8.09448        -0.208566      0.470899      3.008256
O      13.61057      9.64850      8.35724         0.507996      0.162160      1.249397
O       5.89032      1.99466      0.34850        -0.208271      0.219491     -0.978466
O       6.06181      2.26519     12.58036        -0.861742     -0.707686     -0.984412
O       5.92194     13.81699      0.19799        -0.133947     -0.506609     -1.567612
O       5.51871     13.96819     12.38499         1.163303     -0.834729      1.191258
O       6.17163      1.81083      4.22306        -1.447840      0.187822      0.777937
O       5.89396     13.85789      4.19853        -0.275365      0.054504      0.323796
O       5.99731      2.15117      8.40479        -1.310462     -0.592111      1.702329
O       6.06356     13.74029      8.25511        -1.407776     -0.275592      0.802190
O       6.07146      5.86002      0.17142        -0.439422      0.387864     -0.265737
O       5.84099      6.07586     12.63289        -0.274464     -1.126407      0.478634
O       5.92074      6.15323      4.24564        -0.111957     -0.584371      0.164058
O       5.31659      5.74682      8.68186         0.393501     -0.193171     -0.906096
O       5.61494     10.03165     16.62028         0.355855     -0.485591      1.748628
O       6.26951      9.94160     12.72057        -1.817732     -0.161469      0.422597
O       5.94654      9.76164      4.19228        -0.383197      0.060837      0.945467
O       5.83073      9.77997      8.58663         0.044022     -0.140938     -1.568938
O       9.82170      2.15570     16.58227        -0.206787     -0.706125      2.625908
O      10.09596      1.90392     12.73908        -2.590267     -1.955617     -0.995076
O       9.71481     13.96358     16.59974        -0.527616     -1.061319      0.472898
O       9.70100     13.37237     12.66343         1.103198      1.206486      0.500913
O       9.66395      2.17981      4.12441         0.226483     -0.865734      1.364845
O       9.76755     13.44332      4.18566        -0.681452      0.126191      0.703050
O       9.55502      1.85408      8.39481         1.102281     -0.149755     -1.436426
O       9.90565     13.66213      8.08963         0.041706      0.737626      1.301118
O       9.67065      5.89479     16.35434         0.829475     -0.395455      1.949725
O       9.96300      5.55679     12.33656        -1.283557      0.895821      0.341374
O       9.48714      5.74189      4.55547         0.874776      0.656627      0.338984
O       9.35618      5.99425      8.41394         1.024198     -0.505886      1.105196
O       9.87828      9.42491     16.54181         0.689659      0.226564      0.083373
O       9.89907      9.75700     12.73480        -0.743251      0.893319     -1.619140
O       9.43721      9.83219      4.18694         0.612309      0.001592      0.085486
O       9.51925      9.52393      8.78560         0.516043      0.705269     -0.447894
O       3.92560      2.37972      2.20510         1.017811     -2.183690      0.335262
O       3.99973      2.09888     14.42577         0.272166     -0.751316      0.212267
O       3.92187     13.66379      1.91074        -0.291622      0.061791      1.054981
O       3.86152     13.29559     14.41150        -0.814099      2.602461      1.242571
O       0.14102      1.94539      2.35221        -0.135976      0.173380      0.049382
O       0.04776      1.68169     14.44689        -0.431458      1.021021      1.282426
O       0.04313     13.70554      2.47627        -0.338784      1.544787      1.000983
O       0.03877     13.82460     14.82659        -1.114181     -0.981888      0.594684
O       3.86731      1.88210      6.64764         4.607824     -0.324748     -0.102233
O       3.95201     13.87458      6.25771        -0.714845     -0.323114      1.050912
O      15.25653      2.05112      6.79181         1.024719     -0.609996     -1.913511
O      15.52443     13.57436      6.37126        -0.724301      0.357076      0.621356
O       3.86377      2.02741     10.59365         0.588406     -0.659405     -0.518368
O       3.68589     13.42707     10.33705         3.746604      1.100884     -0.177637
O      15.49338      1.61880     10.29326        -0.775456      0.047341      0.437382
O      15.53906     13.47638     10.40650        -2.209152     -0.091795      0.630340
O       3.97330      6.03847      2.00982         0.144027     -0.026376     -0.210012
O       4.03164      5.99062     14.74396        -1.456562     -0.334669      1.151557
O       0.04236      5.22196      2.20356        -1.038345      2.655760     -0.149747
O       0.06309      5.54658     14.41639         0.637687      1.190413      1.365455
O       3.80667      5.88711      5.76939        -0.614023     -0.215565      1.465471
O      15.49566      5.60411      6.41874         1.494356      0.721714     -1.008272
O       3.80449      5.91239     10.95215        -0.073952     -1.029683     -1.022075
O       0.22870      5.75575     10.83649        -3.117012      0.578658     -0.378288
O       3.82687      9.61950      2.24632         2.081294      0.860940     -0.706407
O       3.81080      9.64837     14.57247         1.801261      0.386331      0.047046
O       0.06078      9.58325      2.54386        -1.972594     -0.021747     -0.256559
O       0.06508      9.64715     14.67869        -1.414451      0.252396     -0.330144
O       3.82082      9.88381      6.08030         1.558651      0.277015      0.090166
O       0.01723      9.77884      6.40213        -1.387829     -0.091987     -0.048144
O       3.88669      9.93852     10.62210         2.809178     -0.248480     -1.202973
O       0.16540      9.57150     10.26758        -1.204021      0.559739     -0.321757
O       7.87792      2.03941      2.15251         0.675109     -0.499848     -1.000157
O       8.02518      2.37448     14.57631        -1.671184     -2.301070      0.036348
O       7.85694     13.69683      2.11453         1.763222      0.185972     -0.830119
O       7.68562     13.90153     14.47995        -0.208152     -0.501818      0.959064
O       7.77717      1.56940      6.58726         1.167747      1.121339     -1.570187
O       7.83904     13.83967      6.23237         1.459246      0.082873     -0.200734
O       7.93702      1.70558     10.65989        -2.335165     -0.384245      0.054737
O       7.83078     13.87891      9.99132         1.204818     -1.204432      1.941893
O       8.06749      5.83666      2.10255        -3.140368      1.467797     -0.145457
O       7.80034      5.66149     14.27863         0.893357      0.302486      0.831931
O       7.40530      5.84233      6.62905         0.681189      0.914106     -0.146336
O       7.54471      5.96694     10.43748         2.523380     -0.181065      0.263945
O       8.01035      9.68475      1.60717        -1.780394      1.211792      1.238220
O       7.85976     10.01125     14.71997        -2.201840     -0.330326      0.757490
O       7.76256      9.69060      6.40684        -2.354205      0.057013      0.476584
O       7.75859     10.03730     10.65451         1.352075     -0.970169      0.092592
O      11.56364      2.12226      2.03711         0.740179     -0.619587      0.745984
O      11.88040      2.20382     14.61955        -0.475112     -0.654392      1.694812
O      11.80420     13.53338      2.51272         0.111094     -0.188631     -1.020900
O      11.88148     13.67828     14.96168        -2.034748     -0.831372     -0.798771
O      11.56036      2.35265      6.40802         0.844780     -1.557312      0.510536
O      11.68908     13.19022      6.06579        -2.315768      0.613724     -0.033745
O      11.59751      2.20165     10.24541         0.922932     -0.817183      0.127349
O      11.60484     13.10881     10.37928         1.378083      1.621962      0.200474
O      11.67298      6.32048      2.12851         0.197094     -1.989910     -0.044145
O      11.78651      5.93398     14.10713         0.060744     -1.938108      3.616492
O      11.58601      5.78676      6.76733        -1.180966      0.797740     -0.675826
O      11.85888      5.71749     10.44600        -1.863314     -0.765025      0.440439
O      11.77421      9.97108      2.36000         1.463932     -2.242084     -1.273673
O      11.79375      9.37809     14.66404         1.462309      0.732068     -0.341989
O      11.51460      9.95660      6.02688         0.319066     -0.996694      1.345427
O      11.81079      9.92598     10.43820        -1.973600     -0.263091      0.640935
O       2.02000      3.96069      2.38066         0.761676     -0.398010      0.107159
O       2.17281      3.82244     14.51050        -1.018381      0.780331      0.233749
O       2.31603     15.55858      2.15204        -0.872806      2.266518      0.531975
O       2.04785     15.58341     15.29319         0.666821     -0.440219     -1.239421
O      13.36028      3.98934      2.14792        -0.355014     -1.713435      0.460099
O      13.80661      3.76566     14.79023        -0.203444     -0.151764     -0.462982
O      13.61020     15.59000      2.50948         0.088887      0.535767      0.054987
O      13.63243      0.07948     14.89476         0.113242     -1.043486      0.220931
O       2.10653      3.85122      6.09718        -0.465216      1.393252      0.956133
O       1.67902      0.15279      6.51343        -0.405240     -2.426829      1.112793
O      13.46163      4.11720      6.43536         0.573578     -1.052955      0.581016
O      13.37996     15.43290      6.23403         0.274606     -0.026491      0.413181
O       1.80587      3.72554     10.87815         0.745890     -0.882918     -1.084282
O       1.85966     15.45267     10.82309         1.096920      1.288456     -0.745453
O      13.77582      3.63692     10.54776         0.349819      0.372616      0.034139
O      13.46511     15.20755     10.14531        -0.573400      1.793468      0.292803
O       1.70050      7.71817      1.85877         0.956799     -1.137575      0.762341
O       1.90168      7.94613     14.67251        -0.171441     -2.782625      0.900457
O      13.76042      7.54090      2.09972         0.811686      2.182286     -0.045559
O      13.93574      7.60984     14.55822        -0.439468      0.574203      0.041649
O       1.53370      7.74724      6.00104         1.768895     -1.128229      1.811299
O      13.57513      7.68554      6.54883         0.525910      2.957169      0.804528
O       2.10392      7.72467     10.26152        -0.477467     -0.263851      0.405327
O      13.74617      7.81175     10.71190        -0.107470     -0.147856     -0.783077
O       2.00778     11.81334      2.28645        -0.420473     -0.675287      1.251628
O       1.89703     11.45446     14.81020        -0.344457      4.141470      0.479165
O      14.24496     11.65890      2.15461        -1.059534     -1.815670      0.225855
O      13.69445     11.51002     14.69379         0.218777      0.519978      0.067894
O       1.93392     11.87505      6.40372        -0.294489     -0.973712      1.121205
O      13.77879     11.45499      6.08595         0.167453     -1.702491      1.060902
O       1.97087     11.56237      9.94888        -1.666466     -1.305805      1.058498
O      13.76771     11.61523     10.37587         0.451985     -0.593780      0.852453
O       5.76135      4.01868      2.24725         1.080031      0.483862     -0.212302
O       5.93717      3.98162     14.89601        -0.640327     -0.166183      0.112162
O       5.82704     15.54191      2.20871        -0.554412      2.539393     -0.288707
O       5.97979      0.29360     14.52665        -0.247623     -2.062228      0.530463
O       5.90205      3.77719      6.24698        -1.311140      0.031630      0.146873
O       5.68391      0.01416      6.45200         0.240876      1.776473     -0.038367
O       5.95130      3.90691     10.45582        -0.438140      0.116085      0.422451
O       5.91719      0.02677     10.19516        -1.311013      0.403494      0.303741
O       6.01627      8.05752      2.24495        -0.479801     -0.281815     -1.677209
O       5.95231      7.87037     14.54593         0.422460      1.057665      1.213748
O       5.41116      7.92235      6.51500         1.217686      1.162559     -0.227934
O       5.90724      7.79642     10.59907        -0.799474      1.160666     -0.380256
O       6.09933     11.84859      2.41217        -1.489873     -2.237086     -1.722118
O       5.72415     11.88213     14.43471         2.099859     -0.853704      1.161538
O       6.11688     11.90221      6.04351        -1.004503     -2.477411      0.895755
O       5.87111     11.79333     10.14644        -0.222812      1.060122      1.145088
O       9.85432      4.12437      2.06796         0.485000     -0.977314      0.047988
O       9.80908      3.82514     14.48884         1.393683      1.872403      0.464323
O      10.13744     15.55663      2.08061        -1.427593      0.105008      0.188059
O       9.98457      0.01912     14.45734        -0.687891     -0.565793      0.577945
O       9.60679      3.90289      6.35397        -1.091725     -0.809352      0.732297
O       9.99903     15.57734      5.79865         0.140302      0.865419      1.994297
O       9.27950      3.86346     10.40124         1.612189      0.297059     -0.862684
O      10.15922     15.52722     10.37791        -0.814656     -0.942894     -0.695691
O       9.90238      7.88257      2.31365        -1.151696     -1.541526     -0.054712
O       9.51072      7.70273     14.51066         0.437833      0.056469     -1.297389
O       9.38821      7.80699      6.32457         1.216260      0.410402     -0.002189
O       9.86436      7.70987     10.62321        -0.246306      1.159689      0.213011
O       9.96139     11.56394      1.71050        -1.261539      2.696367      0.219974
O       9.71500     11.78164     14.79357         0.568022     -0.342243      0.458449
O       9.45576     11.55945      6.50885         0.118836      0.764459     -0.443668
O       9.69365     11.75582     10.23328        -0.822823     -0.811838      0.840289
