  # total energy = -7883.33293632 
CRSYTAL
PRIMVEC
    15.464    0.0000000000000000    0.0000000000000000
     0.0000000000000000   15.464    0.0000000000000000
     0.0000000000000000    0.0000000000000000   17.350608
PRESSURE
0.616745 0.561633 0.436107 -0.191636 0.092011 -0.036848
PRIMCOORD
320 1
Pb       3.78693      4.05173      4.24296         0.217971     -1.279931      0.861089
Pb       3.72082      3.90376      0.11216         0.931057      0.034338     -0.267067
Pb       3.78414     15.35534      4.29278         0.821919      0.414111      0.103043
Pb       3.71526     15.36467     17.34418         0.429844      0.349963      0.221471
Pb      15.43963      3.87271      4.27456        -0.005268     -0.104956     -0.002073
Pb       0.04427      3.95707     17.27902        -0.556113     -0.197751      0.185800
Pb       0.05464     15.45808      4.37436        -0.556346      0.037041     -0.399991
Pb       0.05746     15.44997     17.28832         0.051992      0.286251     -0.126957
Pb       3.90211      3.86102      8.62704        -0.146438     -0.482806      0.556180
Pb       3.79542      0.02189      8.61422        -0.083446      0.134997      0.104063
Pb       0.08529      3.88629      8.73592        -0.527012     -0.192104     -0.181492
Pb       0.01507     15.41778      8.57992        -0.673227      0.200778      0.688082
Pb       3.94231      3.81115     13.01688         0.205133      0.151437     -0.364138
Pb       3.83728     15.43443     12.96665        -0.044149     -0.143979      0.319517
Pb       0.04643      3.76892     12.95195        -0.582494     -0.007900      0.410950
Pb       0.02794     15.42264     12.99987         0.300805      0.245567      0.723237
Pb       3.80799      7.72749      4.36423         0.398587      0.122198     -0.238832
Pb       3.88988      7.70960     17.23288        -0.051253     -0.234722      0.378400
Pb       0.05610      7.73513      4.33859        -0.292289     -0.151658     -0.138210
Pb      15.44567      7.67669     17.21855        -0.007246     -0.278066      0.325831
Pb       3.85254      7.73218      8.60244         0.081152     -0.114158      0.166300
Pb      15.37939      7.73995      8.57693        -0.009282     -0.495504      0.480115
Pb       3.82289      7.70287     12.95695         0.346092     -0.072539      0.061159
Pb      15.42810      7.65864     13.03792         0.622841      0.324075      0.376929
Pb       3.68306     11.53634      4.22746         1.040426      0.250847      0.576187
Pb       3.75976     11.58438     17.27296         0.304093     -0.031877      0.330242
Pb      15.45636     11.51056      4.23672        -0.098322      0.056973      0.308044
Pb       0.00149     11.54566     17.26172         0.040056      0.274503      0.239949
Pb       3.76792     11.55634      8.45664         0.681096      0.563331      1.485471
Pb      15.45894     11.55198      8.72441         0.006950      0.316452     -0.243135
Pb       3.85796     11.60201     12.90187        -0.282661      0.170502      0.547200
Pb      15.42702     11.60888     13.11409         0.301679     -0.200617     -0.065467
Pb       7.70268      3.93207      4.18583         0.503259     -0.284453      0.637573
Pb       7.69489      3.90933     17.31164         0.115188      0.200154      0.692184
Pb       7.61776      0.00129      4.31101         0.091182      0.002224     -0.199197
Pb       7.74924     15.44408     17.28243        -0.385538      0.227484      0.732212
Pb       7.69842      3.81206      8.69123         0.362603     -0.051459      0.214071
Pb       7.68275     15.40959      8.58155         0.491746      0.259000      0.149276
Pb       7.69794      3.80895     12.94333         0.141182      0.293389      0.351997
Pb       7.63620     15.32933     12.88585         0.670157      0.073126      1.341767
Pb       7.63443      7.65973      4.28020         0.305673      0.436070      0.316446
Pb       7.61881      7.61367     17.23797         0.696825     -0.051380      0.252093
Pb       7.75273      7.73273      8.60471         0.108176     -0.097315      0.647667
Pb       7.66645      7.67607     12.90023         0.133198      0.043770      0.500939
Pb       7.66601     11.56165      4.18473        -0.033474     -0.252243      0.458891
Pb       7.72694     11.58315     17.32092         0.174210     -0.083874      0.142148
Pb       7.63180     11.57070      8.63419         0.260906      0.070036     -0.007006
Pb       7.74752     11.64286     13.05257         0.439566      0.028157      0.015508
Pb      11.72455      3.88731      4.12559        -0.574789     -0.363833      0.910889
Pb      11.64707      3.85367     17.27208        -0.500521      0.048547      0.456124
Pb      11.55882      0.05218      4.20281         0.044659     -0.460309      0.247241
Pb      11.60123      0.09304     17.25238        -0.355174     -0.127516      0.709796
Pb      11.53388      3.77892      8.51196         0.033030      0.126745      0.580262
Pb      11.61634      0.00900      8.67867         0.068950     -0.007560     -0.016497
Pb      11.62340      3.77004     12.94094         0.158554      0.293871      0.526665
Pb      11.69754     15.40681     12.93450        -0.683246     -0.249004      0.775219
Pb      11.56790      7.78860      4.34341        -0.296932     -0.415104     -0.100564
Pb      11.56967      7.78123     17.29903        -0.318094     -0.212891      0.040858
Pb      11.68475      7.77268      8.52370        -0.343731     -0.905394      0.992388
Pb      11.62723      7.82746     12.91498        -0.675605     -0.360276      0.872801
Pb      11.57300     11.52058      4.20372        -0.665225      0.712680      0.245661
Pb      11.59270     11.48006     17.30401        -0.390525      0.114314      0.651158
Pb      11.66473     11.54834      8.65159        -0.460003      0.159732      0.279098
Pb      11.54092     11.54221     13.14637        -0.470147      0.569802     -0.297179
Ti       1.95858      1.84658      2.31714         0.858353      1.236117      0.275711
Ti       1.92932      2.04295     15.32371        -0.508540     -1.953530     -0.368267
Ti       1.80254     13.51534      2.34043         1.810299     -0.309550     -0.020285
Ti       1.92034     13.50382     15.30319        -0.350018      0.562283     -0.894286
Ti      13.69822      1.85748      2.28930        -1.462623      0.610580      0.293155
Ti      13.56963      1.89904     15.42845        -0.188015      0.797196     -1.577487
Ti      13.49599     13.55212      2.28982        -1.228355      0.130348      0.212192
Ti      13.53673     13.51887     15.46817        -0.328244      0.088387     -1.478546
Ti       1.88932      1.94515      6.58895         0.268546      0.749368      0.761195
Ti       1.84353     13.54677      6.60778         0.053171     -0.757053      0.745203
Ti      13.48511      1.82176      6.58366         0.454079      0.662122     -0.150783
Ti      13.49518     13.47422      6.61979        -0.552718     -0.239861      0.700916
Ti       1.93463      1.89698     11.06282         0.062113     -0.550002      0.187084
Ti       1.78960     13.50039     11.02128         1.219284     -0.799682      0.525434
Ti      13.48923      1.90418     11.08785         0.852557     -0.190742     -1.647595
Ti      13.50546     13.47569     11.12904        -0.009130      0.641977     -1.462559
Ti       1.95430      5.76360      2.32624        -0.702987      0.230257      0.098044
Ti       1.92658      5.74976     15.23205         0.048825      1.359654      0.965683
Ti      13.59188      5.90031      2.35048        -0.397283     -0.631145      0.750054
Ti      13.45748      5.76949     15.31113         1.062372     -0.379160      0.110057
Ti       1.89814      5.72521      6.74133         0.128192     -0.060229      1.900861
Ti      13.48728      5.67497      6.65992        -0.096148      0.389453      0.441373
Ti       1.93636      5.73938     11.05930         0.040114      0.299893      0.546855
Ti      13.55533      5.86835     11.15023        -0.041766     -1.355845     -1.282720
Ti       1.89605      9.60185      2.24354         0.314091     -0.311740      0.133908
Ti       1.93242      9.62667     15.39083         0.130845     -0.442141     -1.197806
Ti      13.50610      9.69948      2.34683        -0.884108     -1.390389     -0.816513
Ti      13.57469      9.67753     15.39666        -1.043782     -0.765675      0.449516
Ti       1.87183      9.64226      6.76594         0.158136     -0.155889     -1.252144
Ti      13.46667      9.66222      6.55269         1.181030     -0.321681     -0.739962
Ti       1.88557      9.66808     11.06527        -0.567094     -0.250231     -0.924216
Ti      13.53475      9.71449     11.09850        -0.233278     -0.511829      0.173638
Ti       5.73274      1.98788      2.42210         0.085951     -0.712485     -0.065344
Ti       5.64707      1.96782     15.50132         0.622146     -0.094070      0.804784
Ti       5.73293     13.53079      2.33786        -0.756742      0.004977      0.251190
Ti       5.73631     13.52369     15.45591         0.616206      0.359474     -1.404261
Ti       5.78664      1.96583      6.67534        -0.283832     -0.186178     -0.975953
Ti       5.73702     13.60861      6.71110         0.411965     -1.110850     -1.314860
Ti       5.76692      1.85465     11.02875        -0.200664      0.911152      0.114804
Ti       5.73411     13.48442     11.03053         0.554211      0.141724     -1.464208
Ti       5.86507      5.77422      2.31433        -0.969674      0.753692     -1.181133
Ti       5.75225      5.77664     15.34142         0.429716     -0.201456      0.523986
Ti       5.81810      5.75505      6.73007        -0.081261      0.504560      0.411412
Ti       5.83186      5.78176     10.95196         0.194885     -0.622724      0.265490
Ti       5.69820      9.59264      2.34536         0.979459      0.209361      0.323657
Ti       5.85626      9.68256     15.33596        -0.505164     -0.432260     -1.381869
Ti       5.83034      9.67748      6.74055         0.385054     -0.267681     -1.790510
Ti       5.71998      9.76926     11.02866         1.222640     -1.416754     -0.777629
Ti       9.68935      1.91816      2.42754        -0.470064      0.367068     -1.124676
Ti       9.52271      1.99422     15.42709         0.180392     -0.926752     -1.230608
Ti       9.61420     13.53237      2.27384         0.593471     -0.363302     -0.656922
Ti       9.70604     13.52370     15.52704        -0.713554      0.285581     -2.329314
Ti       9.65909      1.91235      6.60106        -0.543296     -0.276516      0.262015
Ti       9.66718     13.45905      6.72746        -0.317728      0.347213     -0.270186
Ti       9.57219      1.86215     11.11873         1.076395      0.344320     -0.371282
Ti       9.61922     13.58810     10.91125         0.114381     -1.101388      1.341677
Ti       9.76290      5.80860      2.33726        -0.423727     -0.394909     -1.553378
Ti       9.69011      5.78795     15.26351        -0.873490      0.158622      1.396742
Ti       9.62685      5.76351      6.67722         0.311221      0.160229     -1.162552
Ti       9.74586      5.79503     11.04283        -0.732727     -0.632311      1.009015
Ti       9.63483      9.63078      2.28353        -0.332564     -0.186587     -1.042031
Ti       9.61501      9.64222     15.33711         0.134304     -0.151688     -0.166235
Ti       9.76161      9.65264      6.74001        -2.332058      0.173548     -0.092453
Ti       9.61882      9.69261     11.06613         0.360121      0.368772     -1.227675
O       1.97808      1.82721      0.56654        -0.090381      0.338334     -0.387947
O       1.84323      1.99818     13.54451         0.666750     -0.181232      0.540053
O       2.07180     13.44449      0.60982        -0.851502      0.126189     -0.438043
O       1.87425     13.46647     13.51584         0.430927     -0.212699      0.739637
O      13.62614      1.87545      0.54353         0.023860      0.037634     -0.439095
O      13.59247      2.01448     13.59929        -0.122019     -0.464397      0.961030
O      13.50152     13.52559      0.56008         0.304505      0.202854     -0.663867
O      13.49938     13.46338     13.66234         0.039525     -0.030879      0.554732
O       1.90695      2.06830      4.86199        -0.294839     -0.563607     -0.344236
O       1.85214     13.36547      4.85546        -0.290023      0.390457     -0.092260
O      13.47837      1.88311      4.80161         0.390360     -0.369907      0.562049
O      13.46733     13.50609      4.91009         0.309853     -0.089994     -1.393282
O       1.93525      1.69284      9.34400        -0.081185      0.351416     -1.092153
O       1.67464     13.40203      9.28189         0.131418      0.393267     -0.946197
O      13.52908      1.69041      9.26358        -0.186938      0.425881      1.256622
O      13.64158     13.61480      9.33562        -0.211308     -0.568744      0.499172
O       1.82512      5.84443      0.61263         0.344721     -0.355176     -1.218415
O       1.89625      5.79044     13.50461         0.334497      0.011677     -0.831249
O      13.62161      5.92140      0.62219        -0.017732     -0.251963     -0.873804
O      13.66178      5.55445     13.60152        -0.656895      0.569788     -0.681050
O       2.03285      5.74033      5.06450        -0.604769      0.167407     -2.921632
O      13.48860      5.69622      4.93037         0.336871      0.096215     -0.833868
O       1.86520      5.77110      9.31897         0.175059     -0.084793     -0.111754
O      13.65437      5.92375      9.37352        -0.409771     -0.121009      0.337153
O       1.93814      9.72966      0.49824        -0.263589     -0.332198     -0.075082
O       1.83393      9.64496     13.61453         0.375913      0.013126      0.128076
O      13.44025      9.43468      0.56711         0.314139      0.697610      0.231677
O      13.50132      9.69609     13.68839         0.225028      0.267846     -1.217545
O       1.96268      9.72070      4.96228        -0.512428     -0.377797      0.478711
O      13.38630      9.66424      4.74633         0.464449      0.120475      0.829874
O       1.83440      9.62576      9.25403         0.175252      0.230273      0.044750
O      13.37528      9.58012      9.35369         0.452147      0.170455     -0.342717
O       5.74143      2.02505      0.69445        -0.347440     -0.070667     -0.868379
O       5.67835      2.01189     13.79421         0.041462     -0.148246     -1.486128
O       5.49897     13.62605      0.61858         0.510423     -0.656216     -0.767041
O       5.79798     13.51756     13.65949        -0.238715     -0.015310      0.466038
O       5.66582      2.07146      4.92219         0.671400     -0.396307      0.174111
O       5.67153     13.53967      4.92398         0.281411      0.347337      0.365853
O       5.82870      2.03727      9.31882        -0.165435     -0.891488     -1.031568
O       5.73596     13.37095      9.25797         0.253272      0.537898     -0.360756
O       5.69888      5.84313      0.52522         0.254018      0.061459      0.462001
O       5.78573      5.75479     13.62579        -0.105123     -0.280746     -1.352233
O       5.84082      5.83285      4.96603        -0.101842     -0.255600     -0.004848
O       5.85457      5.66559      9.17033        -0.332111      0.421670      0.455835
O       5.76809      9.41063      0.62075        -0.031488      0.524048     -0.825932
O       5.94807      9.64475     13.54760        -0.644786      0.176612      0.576018
O       5.90103      9.52672      4.92330        -0.311570      0.184160      0.778388
O       5.75237      9.66338      9.23634         0.017471      0.185349      0.555666
O       9.62399      1.94545      0.67602         0.035088     -0.189814     -0.523749
O       9.42821      1.79949     13.65382         0.548364      0.701256      0.749576
O       9.67486     13.56780      0.50439        -0.086570     -0.156148      0.019313
O       9.68956     13.50563     13.68236        -0.064488     -0.065160      1.402552
O       9.68090      1.93283      4.86953        -0.182040     -0.203718     -0.946456
O       9.69969     13.39263      4.99940        -0.338928      0.168235     -0.804730
O       9.62591      1.87310      9.38675         0.143503      0.260987     -0.968074
O       9.67526     13.53592      9.19474        -0.061611     -0.034318     -1.402737
O       9.73402      5.80578      0.54112         0.143290      0.139019      0.936103
O       9.62108      5.70163     13.55990         0.187636      0.229995     -0.616797
O       9.55632      5.79343      4.90246         0.100684     -0.023857      0.044827
O       9.69756      5.67381      9.33330         0.054002     -0.032413     -1.062213
O       9.70730      9.58445      0.48848        -0.209321      0.014141      0.760601
O       9.44293      9.75581     13.56072         0.968356     -0.111275      0.337611
O       9.61756      9.81280      5.01519         0.319511     -0.464779     -0.808125
O       9.80182      9.69370      9.24382        -0.217774     -0.050005      1.072256
O       3.84250      1.93761      2.84697        -0.536959     -0.040907     -0.383217
O       3.75497      1.84063     15.82784         0.460202      0.568615     -0.077069
O       3.75022     13.57166      2.78713        -0.136439     -0.569567      0.161247
O       3.77047     13.46233     15.74189         0.568815      0.091055     -0.069694
O       0.08473      1.79677      2.63174        -0.771328      0.303409      0.696614
O      15.45822      2.00268     15.77493         0.915450     -0.151580      0.161198
O      15.40891     13.53386      2.71692         0.065154     -0.273997      0.207055
O       0.00699     13.51228     15.74971        -0.127564     -0.445095      0.341273
O       3.82748      1.88999      7.07614        -0.144009      0.104769      0.237488
O       3.79929     13.50607      7.07454        -0.598584      0.211659     -0.145080
O      15.40593      1.99577      6.95999         0.147717     -0.529541      0.071148
O      15.39359     13.48485      7.00084         1.183543      0.021081     -0.042181
O       3.85331      1.90396     11.40737         0.306186     -0.513697      0.550327
O       3.93055     13.39661     11.27803        -1.856849      0.247041      0.937678
O       0.05317      1.88546     11.41357        -0.568839     -0.052431      0.084360
O      15.45905     13.44011     11.53847        -0.320057     -0.233573     -0.058551
O       3.79976      5.75700      2.70721         0.381733      0.606195      0.019537
O       3.85909      5.88236     15.70200        -0.927823     -0.116037     -0.027633
O       0.02271      5.79800      2.79723        -0.405009      0.162068      0.377223
O       0.03425      5.74343     15.67156        -0.069756     -0.115472      0.370531
O       3.83253      5.59446      7.08442         0.933424      0.971615      0.153046
O      15.43794      5.70052      7.22283        -0.268386      0.076984     -0.660422
O       3.90990      5.81740     11.50882        -0.736164     -0.092761     -0.615339
O      15.44265      5.74149     11.49749         1.082953      0.097565     -0.147629
O       3.82126      9.60146      2.70831        -0.771333     -0.258322      0.084032
O       3.81214      9.55654     15.69409         0.869679      0.439017     -0.001029
O      15.38692      9.49006      2.72631         0.721986      0.838749     -0.086856
O       0.00169      9.66639     15.75031        -0.499668      0.261583      0.330068
O       3.88866      9.76755      6.98574        -0.783368     -1.107782      0.412290
O      15.43180      9.63126      6.96181         0.141466     -0.352590      0.119676
O       3.88227      9.59365     11.34427        -0.264105      0.196868      0.392624
O      15.41813      9.71644     11.49163         0.059364     -0.039550     -0.239167
O       7.65559      1.90484      2.83198         0.185018      0.070516      0.121815
O       7.63146      2.01453     15.95756         0.321548     -0.237376     -0.712639
O       7.65397     13.44913      2.55088         0.145280      0.161598      0.452325
O       7.74153     13.46027     15.88353        -0.742992     -0.043173     -0.091136
O       7.72311      1.82638      7.10886        -0.049703      0.360193     -0.369966
O       7.64801     13.56559      7.05484         0.450834     -0.011138      0.229022
O       7.74326      1.82747     11.41019        -1.431265      0.409934      0.250970
O       7.66327     13.58671     11.32216         0.717468     -0.308024      0.120600
O       7.70453      5.79580      2.60540         0.269800      0.019333      0.290586
O       7.73921      5.69864     15.73219        -0.020083      0.304156     -0.071320
O       7.76833      5.87019      7.16613        -0.821691     -0.483516     -0.312997
O       7.71518      5.71149     11.47770        -0.083086     -0.137336     -0.535885
O       7.73889      9.65233      2.72804        -0.342973     -0.211897     -0.163348
O       7.69592      9.72801     15.69111         0.131895     -0.038887      0.682576
O       7.70163      9.53577      7.18421         0.463913      0.346613     -0.206334
O       7.78943      9.71090     11.43304        -0.807657     -0.231763     -0.543128
O      11.59802      1.84727      2.61330         0.055884      0.266750      0.350218
O      11.61479      1.93307     15.76202        -0.267967     -0.058759     -0.086007
O      11.55229     13.51432      2.66850         0.418048      0.152855      0.209670
O      11.58107     13.58980     15.78408         0.621319     -0.018310      0.200500
O      11.60204      1.81782      7.00905        -0.170760      0.535459      0.256841
O      11.57048     13.28248      7.02435         0.610292      0.676927      0.407205
O      11.60471      1.76207     11.36920         0.307481      0.308982      0.512780
O      11.62935     13.64501     11.33002        -0.222801     -0.262793      0.214898
O      11.66017      5.76952      2.74605        -0.313270     -0.167673     -0.175982
O      11.59085      5.74715     15.69913         0.059669      0.076318     -0.117636
O      11.53634      5.65791      7.07946         0.794621      0.594216      0.036809
O      11.61898      5.87106     11.48404         0.661952     -0.514478      0.079052
O      11.53913      9.61607      2.67613         0.169448     -0.057637      0.313947
O      11.59454      9.67807     15.69179        -0.061827     -0.278431      0.026534
O      11.62766      9.63724      7.02938         0.567139      0.411189      0.073532
O      11.57628      9.72455     11.57597         0.026449     -0.389871     -0.182294
O       1.90297      3.83124      2.66393        -0.199167      0.101477      0.075412
O       2.04134      3.88745     15.69071        -0.281426      0.097201      0.307107
O       1.91217     15.44546      2.71756        -0.220986     -0.794599      0.299528
O       1.91078     15.45885     15.66270        -0.341750     -0.393542      0.191153
O      13.56308      3.77931      2.76981         0.584961      0.411058     -0.658997
O      13.57677      3.85004     15.83885        -0.263487      0.113571      0.157849
O      13.50488     15.46200      2.66878         0.376820     -0.547416      0.393868
O      13.64978     15.44941     15.77544        -0.426997      0.098734     -0.013622
O       1.94623      3.83523      7.15727        -0.560374     -0.893031      0.118164
O       1.86370      0.00900      7.01538         0.121734     -0.640614     -0.513461
O      13.42707      3.83390      6.98695         0.341916     -1.024563      0.376719
O      13.48790     15.34190      7.02170         0.018023      1.046073     -0.146803
O       2.04223      3.77634     11.34244        -0.510545      1.440130      0.004808
O       1.99132     15.30970     11.43687        -0.139874      1.038772      0.070697
O      13.57350      3.81897     11.39143        -0.540546     -0.416667     -0.159032
O      13.71605     15.37523     11.61939        -1.046249      0.655562     -0.634525
O       1.88899      7.69666      2.69453         0.137248      0.582163      0.484820
O       1.85747      7.67980     15.77143         0.147446      0.230709     -0.415193
O      13.37097      7.69793      2.86052         1.012524      0.282923     -0.232586
O      13.54646      7.66684     15.59629         0.096828      0.516379      0.312211
O       1.92624      7.61892      7.09789         0.248300      1.474592      0.017918
O      13.54298      7.68397      6.96246        -0.250863      0.446951      0.089998
O       1.80860      7.78649     11.38196         0.597625     -1.080097      0.407416
O      13.57699      7.71958     11.64623        -0.294017      0.722654     -0.597709
O       1.94869     11.51251      2.66063        -0.999297      0.223526      0.115389
O       1.86633     11.58305     15.72444         0.116229     -0.146662      0.229732
O      13.43624     11.56842      2.54764         0.707389      0.066330      0.422169
O      13.42951     11.61480     15.82382         0.873832     -0.368383     -0.036819
O       1.87860     11.57662      7.15503        -0.559522      0.134510     -0.582464
O      13.64184     11.48480      6.97422        -0.570076      0.291388      0.348375
O       1.97092     11.54825     11.41076        -0.177129      0.047939      0.245956
O      13.51057     11.55190     11.48571        -0.161618      0.689804     -0.020642
O       5.67984      3.95290      2.70342         0.410058     -0.815047      0.295339
O       5.65253      3.91897     15.85606        -0.112640     -1.005741      0.076156
O       5.66496     15.45271      2.74464         0.483004     -0.103807      0.510116
O       5.76440     15.41436     15.78906        -0.107575      0.387015      0.149394
O       5.83709      3.79422      7.19570         0.143434      0.850681     -0.470108
O       5.74667      0.04156      7.04690        -0.144226     -0.513289      0.313025
O       5.76329      3.76669     11.36383         0.100687      0.663671      0.642197
O       5.70663     15.43507     11.51662         0.019374     -0.089419     -0.520919
O       5.70330      7.65352      2.77198         0.152989      0.454215      0.320681
O       5.89812      7.69147     15.59972        -0.380178      0.921923      0.580461
O       5.75114      7.66069      7.09338        -0.401419      0.058805      0.329325
O       5.85130      7.62985     11.41190        -0.270311      1.064330     -0.345559
O       5.65424     11.53801      2.71474         0.269257      0.181726     -0.195449
O       5.76315     11.60069     15.74019        -0.201205     -0.620286      0.454506
O       5.87069     11.58095      6.95635        -0.216304      0.038994      0.471661
O       5.84975     11.59118     11.50342        -0.209858     -0.609439     -0.296770
O       9.61234      3.88992      2.66093         0.175997     -0.454115      0.511517
O       9.66237      3.88277     15.80802         0.172736     -0.500167     -0.300712
O       9.60907     15.39311      2.68817        -0.271660      0.393975      0.594772
O       9.53737      0.01926     15.78379         0.513992      0.239412      0.290790
O       9.57326      3.86034      6.96903         0.255588     -1.024252      0.627260
O       9.68174      0.02621      6.98542        -0.023747     -0.883970      0.451949
O       9.74755      3.85719     11.59240        -0.441051     -0.868536     -0.725470
O       9.60269     15.40665     11.35235         0.259661      0.421844      0.533097
O       9.67815      7.64616      2.71691        -0.014056      1.252133      0.245288
O       9.61987      7.75847     15.73145         0.096147     -0.527939     -0.449186
O       9.78103      7.69716      7.02689        -0.336119      0.339442      0.312816
O       9.68342      7.66348     11.35918        -0.149229      1.427364      0.270544
O       9.70378     11.56063      2.57082        -0.396016      0.018400      0.410246
O       9.68351     11.53317     15.84435        -0.094883      0.580322     -0.060615
O       9.59498     11.53973      7.10039        -0.014090      0.076125      0.604319
O       9.67354     11.70548     11.44712         0.117906     -0.767294     -0.109862
