  # total energy = -7877.95555870 
CRSYTAL
PRIMVEC
    15.464    0.0000000000000000    0.0000000000000000
     0.0000000000000000   15.464    0.0000000000000000
     0.0000000000000000    0.0000000000000000   17.350608
PRESSURE
-0.358705 -0.664969 0.692913 0.053974 0.014767 0.024254
PRIMCOORD
320 1
Pb       4.00703      3.94546      4.50434        -0.600580      0.212529     -0.355338
Pb       4.05338      3.81016     17.20059        -0.874947      0.430673      0.114458
Pb       3.74564      0.18395      4.29568        -0.089084     -0.777743      0.358945
Pb       3.98683      0.06902     17.30293        -0.627875     -0.401949     -0.577726
Pb       0.24871      3.84687      4.48586        -0.413568     -0.207087     -0.817763
Pb      15.39271      3.67527     17.31557         0.158168      0.424265      0.004947
Pb      15.38067     15.42793      4.20230         0.397536     -0.114381     -0.313325
Pb      15.41179     15.44470     17.32424        -0.054047     -0.038071     -0.191149
Pb       3.86763      3.89935      8.65009        -0.073514      0.248889     -0.553810
Pb       3.83770     15.34422      8.60140         0.178434      0.218499      0.150377
Pb      15.34202      3.72296      8.59819         0.375954     -0.146561     -0.416728
Pb      15.30362     15.37124      8.59602         0.401270     -0.017560     -0.587489
Pb       3.81313      3.69094     12.85104        -0.085253      0.095562     -0.049773
Pb       4.01377     15.24963     13.05552        -0.541801      0.170309     -0.928039
Pb       0.07795      3.96297     12.92935         0.069148     -0.619653      0.084677
Pb       0.06036      0.14886     12.99376        -0.113111     -0.144074     -0.381062
Pb       3.70994      7.81477      4.28256         0.125108      0.228504     -0.248570
Pb       3.61347      7.61288      0.05861         0.151100      0.051195     -1.203457
Pb      15.32762      7.72067      4.27462         0.334448     -0.220181     -0.307099
Pb      15.36150      7.68656     17.27006         0.320398     -0.023951     -0.380936
Pb       4.02002      7.88180      8.69573         0.034444     -0.056985     -0.503608
Pb       0.19450      7.56659      8.82468        -0.612581      0.706170     -0.960367
Pb       3.90900      7.66604     12.87425        -0.537508      0.630498     -0.146014
Pb       0.06779      7.91531     12.90150         0.070014     -0.071665     -0.276468
Pb       3.89879     11.66073      4.31636        -0.662781     -0.276350     -0.442646
Pb       3.94096     11.53925     17.32913        -0.352429     -0.128760     -0.661302
Pb      15.25077     11.59155      4.33157         0.715414     -0.027399     -0.839877
Pb       0.00790     11.59210     17.27483        -0.101160      0.322263     -0.478144
Pb       3.81365     11.62731      8.67497         0.262657     -0.079262     -0.091331
Pb      15.23888     11.50851      8.56764         0.188404     -0.105745     -0.123060
Pb       3.85564     11.46715     13.05194         0.077305     -0.101022     -0.652669
Pb      15.34466     11.74753     12.79636         0.221664     -0.424460      0.305021
Pb       7.64139      3.82818      4.39658         0.487653      0.158087     -0.063233
Pb       7.75926      3.91809      0.00494         0.454995      0.466820     -0.213533
Pb       7.79948     15.42196      4.24528        -0.195011     -0.084076      0.095957
Pb       7.61262      0.05505      0.14286         0.311396      0.051494     -0.554153
Pb       7.80597      3.89093      8.57101         0.019343      0.261127      0.123122
Pb       7.69774      0.14887      8.60662        -0.597963     -0.319098     -0.118192
Pb       7.76320      3.70953     12.94281        -0.024440      0.383537      0.027320
Pb       7.93034     15.42986     13.13290         0.119107     -0.217895     -0.316041
Pb       7.69531      7.85458      4.32021        -0.468177     -0.002442     -0.259652
Pb       7.78816      7.66713      0.01741         0.143010     -0.219107     -0.142965
Pb       7.89050      7.63525      8.72937        -0.178642      0.280830     -0.714400
Pb       7.64012      7.65940     12.98353         0.459779     -0.115178      0.166422
Pb       7.71732     11.61506      4.29039        -0.651041     -0.053568     -0.702939
Pb       7.64122     11.40528     17.33748        -0.009620     -0.062345     -0.439674
Pb       7.57003     11.70461      8.56657        -0.195583     -0.007386     -0.016591
Pb       7.75868     11.47802     12.93466        -0.054420      0.601863      0.516161
Pb      11.42030      3.79451      4.46074         0.541772      0.188076     -0.654086
Pb      11.55347      3.99015      0.03097        -0.192542     -0.098002      0.004521
Pb      11.66454     15.34715      4.28361        -0.160270      0.439674     -0.611568
Pb      11.56682      0.10267      0.15238         0.332797      0.138473     -0.214974
Pb      11.75195      3.88188      8.80691        -0.572979     -0.469148     -0.630427
Pb      11.43232     15.38671      8.50197         1.031331     -0.127327      0.381412
Pb      11.70238      3.84787     13.14671        -0.257354     -0.371487     -0.599567
Pb      11.58441     15.31556     13.17925        -0.072565      0.166450     -0.664965
Pb      11.61142      7.67349      4.20481        -0.213175     -0.277211      0.031109
Pb      11.63344      7.66378     17.23042        -0.273582     -0.136747     -0.189089
Pb      11.61927      7.55450      8.78553        -0.254431      0.771434     -0.396998
Pb      11.42194      7.71107     13.09935         0.151586      0.018673     -0.438783
Pb      11.49747     11.55272      4.28799         0.463608     -0.068014     -0.505149
Pb      11.50586     11.63569     17.29568         0.217655     -0.231125     -0.437605
Pb      11.30649     11.47774      8.54833         0.874603     -0.145900      0.138817
Pb      11.62880     11.65434     12.81133        -0.274123      0.313539      0.153307
Ti       2.00500      1.90348      2.17761        -1.494200      0.782476      2.417398
Ti       1.89305      1.94894     15.33210         0.307255      0.006478      2.504100
Ti       1.91326     13.54277      2.21264        -1.296382     -0.681289      2.193162
Ti       1.96773     13.65098     15.34339        -0.816411     -1.266602     -0.495183
Ti      13.54216      2.02208      2.41340        -0.672752     -0.084838     -0.565712
Ti      13.43953      1.92725     15.34865         0.891191     -0.232336     -1.281504
Ti      13.42091     13.51666      2.16488         0.952465     -0.209448      0.595290
Ti      13.51452     13.59074     15.30949         0.646351     -0.784258      1.543210
Ti       1.92811      1.85950      6.61767        -0.173487      0.164992     -0.223444
Ti       1.85880     13.49780      6.60554        -0.191196      0.401627      1.444311
Ti      13.50356      1.83134      6.53453         0.290483      0.420694      3.037458
Ti      13.40849     13.40863      6.63621         0.830710     -0.180396      0.779949
Ti       1.92885      1.86251     10.76934         0.342978     -0.205800      0.851248
Ti       1.93746     13.47907     10.83506         0.444811      1.159813      0.160414
Ti      13.56200      1.86890     10.94107        -0.595703      0.279537     -0.201519
Ti      13.53729     13.61218     10.86420        -0.866989     -1.090035     -0.830670
Ti       1.88689      5.73077      2.31763        -0.322323      0.197901      0.323576
Ti       1.82774      5.76592     15.22612         1.372775      0.158968      1.047583
Ti      13.52819      5.73248      2.27491        -0.457252     -0.351126      1.884839
Ti      13.60497      5.71023     15.24111        -0.931631      0.939221      1.538732
Ti       1.86950      5.81355      6.61324         0.709075      0.113696      1.693066
Ti      13.48695      5.83459      6.80514         0.665603     -0.018133     -2.242486
Ti       1.94232      5.78552     10.91878        -0.011010     -0.029640      2.386470
Ti      13.51052      5.65922     11.09304        -0.144483      1.234605      0.470229
Ti       1.77626      9.68063      2.20106         0.312321      0.679359      0.917139
Ti       1.80361      9.75464     15.34864         1.766717     -0.463249      0.237914
Ti      13.41299      9.58746      2.16183         0.296605      0.814139     -0.385933
Ti      13.52571      9.70336     15.20980        -0.118092      0.564942      2.243424
Ti       1.95637      9.75938      6.66297        -0.874524     -1.494742     -0.126095
Ti      13.46905      9.50518      6.66605         0.202749      0.853822      2.550477
Ti       1.91390      9.77656     10.85970         0.622489     -0.908527      0.868918
Ti      13.39985      9.60820     10.91930         1.130219      0.106580      0.813975
Ti       5.82734      1.94213      2.44041         0.245942     -0.272414     -0.434697
Ti       5.83023      1.87618     15.23301        -0.140366     -0.076092     -0.057622
Ti       5.65804     13.57605      2.29785         0.671653     -0.760353      1.766473
Ti       5.81586     13.43354     15.25862         0.453620     -1.061587     -0.040602
Ti       5.79330      1.98816      6.70365         0.441745     -0.693523     -0.334579
Ti       5.75840     13.59767      6.50625        -0.023904     -0.256176     -0.844609
Ti       5.83645      1.88909     10.95771        -0.723112     -0.781099      0.474252
Ti       5.83321     13.50148     11.17775        -0.877591     -0.276031     -1.099699
Ti       5.73364      5.75129      2.38412         0.305881      0.909877      0.711730
Ti       5.77020      5.76553     15.27499        -0.256522      0.471942      1.611376
Ti       5.74615      5.84796      6.65426        -0.294189      0.988917      0.893196
Ti       5.75176      5.72863     10.98495         0.701478     -0.172608     -0.612865
Ti       5.59912      9.63388      2.32624         1.443737      0.022950      1.219130
Ti       5.77953      9.45719     15.33128        -0.691110      1.231993      0.294686
Ti       5.74306      9.74671      6.55210         0.885193     -1.216213     -0.776101
Ti       5.92570      9.60545     10.99045        -1.971484      0.993365      0.122393
Ti       9.66508      1.94408      2.44843         1.229794      0.174892     -1.151939
Ti       9.64065      1.81758     15.40435         0.364830      0.875474     -0.359684
Ti       9.60327     13.49301      2.18423        -0.022346     -0.018418      0.392082
Ti       9.67527     13.50771     15.38653        -0.369061     -0.428375     -1.711366
Ti       9.72641      1.92551      6.77517        -0.507860      1.600396     -1.670309
Ti       9.60417     13.55460      6.54815        -0.371912     -0.640531      1.675605
Ti       9.66143      1.94071     10.91938         0.600895      0.385679      1.227304
Ti       9.62358     13.66048     10.90018         0.350422     -1.279790      1.124582
Ti       9.56622      5.78880      2.44900         0.855426      0.382835     -2.309052
Ti       9.64573      5.72404     15.26771        -0.498781      0.183795      0.507812
Ti       9.61227      5.85178      6.60646         0.286703     -0.215601     -0.122160
Ti       9.59239      5.76915     11.07582         0.533985     -0.215472     -0.372530
Ti       9.57878      9.67064      2.32058        -0.872007     -0.891766     -0.707141
Ti       9.66219      9.64809     15.31849        -0.331215     -0.174046     -0.031434
Ti       9.59530      9.67103      6.50498        -0.178123     -1.390003      2.294752
Ti       9.62791      9.73389     11.02187         0.808247     -0.395140     -0.244904
O       2.00616      1.96847      0.47243        -0.080658     -0.027663     -1.399610
O       1.87484      2.01051     13.66968        -0.052648     -0.804376     -3.730551
O       2.02436     13.55121      0.53798        -0.184403      0.072970     -2.527759
O       1.90712     13.60644     13.56839         0.076820      0.437746     -0.580801
O      13.46441      2.01445      0.63464        -0.059469      0.120727     -1.062771
O      13.50102      1.87010     13.50731         0.171328     -0.160214      0.827081
O      13.38752     13.50024      0.41948         0.013713     -0.226088     -0.564591
O      13.54042     13.69739     13.59265         0.222434      0.232722     -2.201256
O       1.86686      1.81691      4.80875         0.249223      0.326995     -0.042250
O       1.86192     13.54133      4.91253        -0.224304     -0.056359     -1.582549
O      13.42534      1.73544      4.86047        -0.060506      0.343306     -2.520802
O      13.43492     13.45713      4.89225        -0.211470     -0.038740     -1.355111
O       1.86112      1.89242      9.03770         0.346337      0.226013     -0.795861
O       2.04426     13.57920      9.07756         0.103280     -0.541093     -0.567716
O      13.59823      1.98447      9.14293        -0.183772     -0.130328      0.402232
O      13.46262     13.41833      9.10139        -0.000585      0.631560     -0.259913
O       1.84406      5.73432      0.60691         0.299840      0.105104     -1.983356
O       1.79124      5.74282     13.49940         0.259010      0.265121     -1.347864
O      13.41394      5.75330      0.56365         0.123820     -0.261931     -1.761355
O      13.60901      5.65226     13.54093        -0.365360      0.043734     -2.304253
O       1.77676      5.72531      4.90181         0.188431      0.049887     -2.071807
O      13.51566      6.11761      5.00008         0.097191     -0.502100      0.760525
O       2.03662      5.79580      9.23078        -0.186886     -0.052881     -1.956943
O      13.55725      5.77223      9.33104        -0.316700     -0.471344     -1.188544
O       1.71593      9.84927      0.44072         0.419891     -0.728684     -0.287235
O       1.90780      9.61961     13.61457        -0.044037      0.177087     -1.230031
O      13.45268      9.65936      0.38394         0.088021      0.016600      0.445889
O      13.67609      9.79479     13.53453        -0.320548     -0.638026     -2.506641
O       1.97897      9.86046      4.92855         0.182572     -0.564984     -0.881767
O      13.30700      9.52774      4.98881         0.498080     -0.225436     -2.803628
O       1.98237      9.73617      9.11969         0.106482     -0.252882     -0.706558
O      13.56248      9.73112      9.20926        -0.594066     -0.285407     -1.063403
O       5.89995      1.97865      0.67586        -0.165125     -0.481858     -1.084205
O       5.82094      1.84634     13.48505        -0.029901      0.110756      0.086067
O       5.75118     13.59534      0.58623         0.003217      0.358966     -1.725768
O       5.80356     13.22956     13.47136        -0.569530      1.085491     -0.037771
O       5.88598      2.00209      4.92342        -0.396651      0.111867     -1.089795
O       5.71527     13.51065      4.73540         0.331902      0.212335     -0.009016
O       5.80653      1.75638      9.21536         0.413930      0.628225     -1.468278
O       5.77607     13.42269      9.42004         0.288177     -0.349440     -1.874980
O       5.81322      5.67084      0.66963        -0.257581      0.120333     -1.312606
O       5.89686      5.71943     13.58467        -0.194978      0.384636     -2.151855
O       5.74144      5.71657      4.91971         0.122574     -0.331596     -1.335469
O       5.72513      5.69958      9.22530        -0.002329      0.214478     -0.792132
O       5.77910      9.60856      0.61501        -0.177358      0.131041     -1.612338
O       5.90478      9.51875     13.53790        -0.453371     -0.194785      0.117573
O       5.64128      9.66377      4.76758        -0.404423      0.464346     -0.194804
O       5.84009      9.73212      9.24449         0.295820     -0.130677     -1.132383
O       9.68252      1.84149      0.66748        -0.099725      0.382835     -0.863516
O       9.64511      1.81217     13.63725        -0.197589     -0.285103     -0.556866
O       9.75286     13.45587      0.42788        -0.456645      0.002654     -0.863353
O       9.78424     13.66075     13.51649        -0.233639      0.111929      0.473943
O       9.81684      1.96966      4.98420        -0.391635      0.048418     -0.707562
O       9.65228     13.40488      4.87373         0.249591      0.229225     -2.724168
O       9.52008      2.08538      9.18926         0.135673     -0.719357     -1.539402
O       9.59917     13.52125      9.15489        -0.116913      0.299053     -0.994529
O       9.58795      5.68748      0.47053        -0.020193      0.118074      1.367833
O       9.65103      5.79493     13.49152        -0.010827     -0.142023     -0.438388
O       9.56891      5.84844      4.81630         0.344384     -0.131672      0.203784
O       9.62171      5.74123      9.25177         0.108853      0.591471      0.367240
O       9.45912      9.66180      0.53666         0.303080      0.159423     -0.576107
O       9.69657      9.55935     13.57112        -0.166981      0.073994     -1.053534
O       9.68851      9.57154      4.82018         0.101062      0.301025     -2.746373
O       9.61861      9.69229      9.27706        -0.283391     -0.278128     -0.893027
O       3.85477      1.80495      2.59033         0.522579      0.310672      0.236510
O       3.90924      1.93696     15.60499         0.904368     -0.034639      0.504262
O       3.75043     13.68792      2.64163         0.898075      0.237399      0.325021
O       3.82533     13.50117     15.64565         1.239160      0.091422      0.237397
O      15.35604      2.00191      2.61043         1.490000     -0.329919      0.514072
O      15.43619      1.86329     15.73575        -0.116057     -0.101994      0.283091
O      15.37922     13.54415      2.53067        -0.745453     -0.090703      0.377851
O      15.45772     13.65514     15.69161         0.184631      0.510162      0.564001
O       3.95855      1.70408      6.89970        -1.067681      0.364748      0.306345
O       3.87756     13.72597      6.80813        -0.230353     -0.660789      0.727983
O      15.44175      1.92270      6.89385        -0.586175      0.360926      0.258717
O      15.35094     13.40166      6.96714         0.601513      0.074043      0.226255
O       3.90166      1.93546     11.27256        -1.076309      0.293769      0.328945
O       3.87037     13.31280     11.38530        -0.463925      0.681360      0.653031
O       0.02232      1.88985     11.24101         0.150885     -0.068917      0.377414
O      15.45317     13.50985     11.06330         0.502417      0.098145      0.798442
O       3.80330      5.70492      2.66267         0.784386      0.200566      0.709915
O       3.80692      5.89092     15.56411         0.155284     -0.809880      0.722936
O      15.44639      5.86096      2.65257        -1.051263     -0.282188      0.577441
O      15.42971      5.75635     15.62806         0.023256      0.099367      0.627017
O       3.83999      5.76431      6.89600         0.175763     -0.227904      0.626989
O       0.03350      5.59000      7.05922        -0.314830      0.433344      0.527373
O       3.88587      5.71784     11.28712        -1.042622     -0.052465      0.724862
O      15.41513      5.79900     11.39740         1.207755      0.027823     -0.344350
O       3.72398      9.68057      2.63708        -0.132144     -0.232367      0.062457
O       3.84461      9.76129     15.75430        -0.106679     -0.725238      0.006502
O      15.41894      9.70577      2.63667        -1.526386     -0.461750      0.316892
O      15.43953      9.58139     15.64003        -1.006006     -0.290650      0.527858
O       3.94365      9.65780      7.07148        -1.493108      0.129363      0.492702
O       0.03100      9.66970      6.94511        -0.659052      0.355793      0.290990
O       3.91492      9.64191     11.26846        -0.216384      0.423787      0.556922
O       0.00651      9.71510     11.16804         0.126733     -0.207280      0.730972
O       7.79916      1.95853      2.70409        -0.577007      0.100913      0.833413
O       7.74092      1.70232     15.68569        -0.771987      0.563591      0.369574
O       7.71109     13.48872      2.57917         0.200931      0.113325      0.383887
O       7.74990     13.44682     15.39510        -0.575311      0.468559      0.938765
O       7.74627      2.04298      6.93625         0.217857     -0.356800      0.969395
O       7.72573     13.42617      6.76009        -0.099660      0.059303      0.935876
O       7.69341      1.78452     11.41003         0.715525      0.178201      0.132832
O       7.68572     13.44021     11.37976         1.895412      0.902607      0.347613
O       7.70280      5.77090      2.65821        -0.627638     -0.180268      0.586127
O       7.69863      5.81162     15.70160         0.135708     -0.150118      0.201392
O       7.75131      5.80016      6.99993        -0.597210     -0.084113      0.381497
O       7.68465      5.79592     11.30679         0.447260      0.284562      0.397200
O       7.57630      9.68646      2.64331         0.734350      0.393094      0.829841
O       7.66305      9.62391     15.69720         0.183771     -0.116245      0.391536
O       7.64611      9.56436      6.63043         0.799071      0.546095      1.003129
O       7.79235      9.51061     11.38004        -0.113484     -0.015476      0.302572
O      11.59546      2.02481      2.78803        -0.787268     -0.459322      0.559893
O      11.64135      1.95530     15.62625        -1.543322     -0.047280      0.665837
O      11.49623     13.46200      2.50334         0.539148     -0.066700      0.875322
O      11.61822     13.45514     15.52550        -0.148952     -0.342038      0.813079
O      11.59216      1.95743      7.05943         0.579995     -0.443800      0.496193
O      11.53084     13.54919      6.93205        -0.722393      0.035868      0.532031
O      11.49234      1.93122     11.17585         1.132405      0.344120      0.181193
O      11.63966     13.62465     11.22604        -0.667923     -0.306208      0.579117
O      11.53453      5.83661      2.65910         0.201859      0.175933      0.322979
O      11.52213      5.65870     15.62499         0.312522      0.218683      0.110757
O      11.60546      5.96095      7.04862        -0.350973     -0.429905      0.359729
O      11.62107      5.59814     11.42273        -0.380379      0.572182      0.112694
O      11.47396      9.59248      2.50881         1.073664      0.143750      0.392052
O      11.57350      9.70936     15.58658         0.345352     -0.022792      0.418708
O      11.53729      9.52799      6.95934         0.165923     -0.228449      0.836075
O      11.52779      9.71161     11.32544         0.714657     -0.205077      0.392138
O       1.84905      3.85211      2.64656         0.105796     -1.165234      0.614518
O       1.84539      3.82297     15.52697         0.308012      0.799846      1.034436
O       1.69987      0.05559      2.63020         0.792295     -0.222061     -0.062320
O       2.08466      0.03198     15.74660        -0.513640      0.219966      0.258382
O      13.45560      3.89014      2.73584         0.105115      0.642588      0.353343
O      13.49119      3.87814     15.66101         0.304638     -0.925329      0.491676
O      13.38563     15.45148      2.49452        -0.106306     -0.739319      0.804590
O      13.45415      0.05818     15.81135         0.036269     -0.400614      0.049483
O       2.05580      3.75130      6.83234         0.018620      0.381017      0.588646
O       1.76883      0.00073      6.90303         0.275451     -1.042882      0.706180
O      13.48495      3.84165      7.05616        -0.226498      0.251935     -0.023644
O      13.51950     15.38260      6.90236        -0.337321      0.585665      0.650954
O       1.88588      3.81493     11.24214         0.325994      0.582276      0.232299
O       1.98020     15.44561     11.00468         0.058634     -0.205418      1.244783
O      13.50779      3.76241     11.45124         0.280939      0.189214     -0.216993
O      13.56637      0.02467     11.20989         0.122122     -0.210981      0.392389
O       1.83290      7.71256      2.54650         0.583113      0.791670      0.464084
O       1.87812      7.68522     15.69078        -0.152653      0.174947      0.660975
O      13.45285      7.70360      2.49845         0.295623      0.815242      0.692326
O      13.41891      7.61858     15.65267         0.260188      0.748598      0.025599
O       1.87740      7.69457      6.87897         0.145745     -0.054285      0.751543
O      13.74995      7.67264      7.29846        -0.558604      0.004680      0.095264
O       2.08105      7.81546     11.31273        -1.030672     -1.188354     -0.049120
O      13.55239      7.73405     11.32375        -0.506236      0.005758      0.196977
O       1.77600     11.60356      2.66606         0.601598      0.552660     -0.054231
O       1.80714     11.64958     15.61005        -0.017054     -0.111329      0.484180
O      13.42765     11.52499      2.67150        -0.166933      0.115153      0.048413
O      13.74917     11.62951     15.41675        -0.695557     -0.168162      0.954429
O       1.96994     11.56220      7.01417         0.427160      1.841007      0.462814
O      13.36151     11.49675      6.95849         0.298517      0.046578      0.225738
O       1.96945     11.63341     11.22718        -0.349071     -0.599898      0.412887
O      13.48118     11.63133     11.28133         0.148328      0.013261      0.617626
O       5.85133      3.82086      2.72662        -0.489521      0.115144      0.842295
O       5.78398      3.90286     15.66050         0.429928     -1.616532      0.161984
O       5.99432      0.04123      2.79074        -0.874541     -0.155599     -0.409649
O       5.86054     15.36164     15.58099        -0.716422      0.722734      0.439853
O       5.76906      3.87276      7.02862        -0.289898     -0.036798      0.261063
O       5.99104     15.43500      6.96926        -0.006206     -0.005593      0.309335
O       5.81776      3.81930     11.31873         0.197665     -0.159513      0.403627
O       5.63158     15.42609     11.17127         0.311694     -0.496676      1.540181
O       5.75250      7.73359      2.83882        -0.579310     -0.700585     -0.453683
O       5.73373      7.67027     15.82429         0.085925     -0.018577     -0.194248
O       5.72143      7.78585      6.91144         0.180814     -1.303111      0.732610
O       5.74200      7.68379     11.22989         0.271956     -0.365371      0.729484
O       5.62405     11.65897      2.58706         0.065256      0.013490      0.305063
O       5.72366     11.54863     15.73572         0.527914      0.354863      0.279108
O       5.79116     11.59993      6.85498        -0.160197      1.278912      0.789670
O       5.93762     11.47086     11.42200        -0.126840     -0.165180      0.279319
O       9.71122      3.92861      2.72889        -0.411447     -0.941798      0.591367
O       9.55015      3.75170     15.60118        -0.056685      0.393067      0.494087
O       9.69417     15.45508      2.57284        -0.198920     -0.686462      0.750753
O       9.75041     15.39114     15.72255        -0.098648      0.281830      0.611873
O       9.71798      3.89056      7.05119         0.046329      0.760406     -0.018170
O       9.62974      0.03091      6.90196        -0.131794     -0.808921      0.674371
O       9.55156      3.87102     11.37228        -0.106817     -0.814556      0.346281
O       9.76886      0.00449     11.34425        -1.092309      0.175772     -0.077871
O       9.48797      7.74781      2.63798         0.228792     -0.150669      0.284902
O       9.65319      7.69118     15.56938         0.172065     -0.107209      0.659311
O       9.57748      7.74591      7.05699         0.035563     -0.660688      0.387923
O       9.78983      7.68939     11.42614        -0.390656     -0.164631     -0.209963
O       9.61946     11.55246      2.59465        -0.017210      0.690392      0.654457
O       9.53877     11.56372     15.50838         0.583200     -0.052025      1.104928
O       9.65570     11.50044      6.84457         0.004652      1.254085      0.608591
O       9.67427     11.66262     11.23992        -0.059441     -0.386079      0.586945
