  # total energy = -7882.05547558 
CRSYTAL
PRIMVEC
    15.464    0.0000000000000000    0.0000000000000000
     0.0000000000000000   15.464    0.0000000000000000
     0.0000000000000000    0.0000000000000000   17.350608
PRESSURE
-0.723116 -0.451515 1.5031 0.289964 -0.011303 -0.039676
PRIMCOORD
320 1
Pb       3.87116      3.57782      4.30426        -0.251480      0.826948      0.078153
Pb       3.86149      3.79771     17.17132        -0.270251      0.215239      0.314265
Pb       3.90152     15.37834      4.29285        -0.109742     -0.154430      0.031191
Pb       3.87079      0.01791     17.31270        -0.230253     -0.191059     -0.580543
Pb      15.36693      3.84481      4.29195         0.167328      0.059665     -0.013830
Pb      15.31488      3.75834      0.03569         0.431677      0.549981     -0.296631
Pb      15.37539     15.43570      4.20118         0.611081     -0.105907      0.726513
Pb      15.31043     15.43745     17.29155         0.547979     -0.203845     -0.045165
Pb       3.84053      3.80816      8.55673        -0.449904      0.323718      0.143974
Pb       3.92437     15.44122      8.68292        -0.245845     -0.066562     -0.164366
Pb      15.40748      3.93539      8.48661         0.483661     -0.313321      0.566632
Pb       0.08364      0.12939      8.70169         0.160289     -0.413137     -0.112376
Pb       3.78212      3.91581     12.99889         0.071298      0.239312     -0.399761
Pb       3.80770      0.04793     12.93292        -0.493820      0.107987     -0.386130
Pb      15.24034      3.83815     12.94983         0.589502     -0.238789      0.057642
Pb      15.38674     15.39456     12.95921         0.216285      0.073331     -0.906026
Pb       3.96807      7.58405      4.18042        -0.189740      0.923382      1.017914
Pb       3.87024      7.72055      0.10634        -0.049284      0.183768     -0.303082
Pb       0.04965      7.76620      4.24521         0.004778     -0.383120      0.466938
Pb       0.02009      7.77297      0.11398         0.138194     -0.118332     -0.038163
Pb       3.72632      7.57694      8.65678         0.243569      0.226151     -0.033500
Pb      15.40096      7.83998      8.65978         0.086066     -0.347388     -0.541126
Pb       3.90016      7.77756     12.98292        -0.260015     -0.175706     -0.538132
Pb      15.37212      7.62725     12.95945         0.295120      0.234991     -0.046029
Pb       4.05316     11.51109      4.39280        -0.780802      0.000854     -0.386569
Pb       3.95619     11.61073     17.30242        -0.439699      0.094865     -0.059524
Pb       0.01469     11.62286      4.33742         0.480128      0.107320     -0.247771
Pb      15.44390     11.60200      0.03018         0.131871      0.338093     -0.167574
Pb       4.02545     11.47857      8.82919        -0.315807      0.487080     -0.357488
Pb       0.04974     11.67254      8.59147        -0.401126     -0.110332     -0.248150
Pb       3.81785     11.65443     12.96421         0.416765     -0.541146     -0.045911
Pb      15.39958     11.30428     12.95649         0.015080      0.999905      0.547811
Pb       7.68153      3.76371      4.32872         0.314809      0.079828     -0.275318
Pb       7.66581      3.81065     17.26059         0.220357      0.189196     -0.178184
Pb       7.77640     15.37763      4.30941        -0.272210      0.156219      0.092253
Pb       7.66441     15.43602     17.25071        -0.531931     -0.121031      0.106191
Pb       7.59142      3.82062      8.50779         0.708447      0.089944      0.957241
Pb       7.77465     15.36785      8.70103        -0.577291      0.298469     -0.887068
Pb       7.70423      3.95527     12.97024         0.002142      0.103127     -0.509634
Pb       7.65365      0.10449     12.96968         0.162743      0.088072     -0.543826
Pb       7.80439      7.69535      4.21835        -0.461729     -0.054898      0.652529
Pb       7.77755      7.85153      0.03832         0.098958     -0.380439     -0.524445
Pb       7.54732      7.61814      8.58218         0.633238      0.580513      0.395681
Pb       7.83326      7.81333     13.02450        -0.247776     -0.365872     -0.115118
Pb       7.78040     11.56538      4.41425         0.142371      0.300135      0.040939
Pb       7.73299     11.63348     17.20320        -0.120619      0.250585      0.669192
Pb       7.91175     11.49907      8.65207        -0.583833      0.199260     -0.457147
Pb       7.59429     11.56459     12.84708        -0.086488      0.091791     -0.008515
Pb      11.41072      3.87330      4.41048         0.383751      0.021955     -0.665465
Pb      11.51751      3.75668     17.29765        -0.172898      0.276264     -0.310518
Pb      11.61738      0.02630      4.34152        -0.187884     -0.124582     -0.394731
Pb      11.55471     15.28228     17.23974         0.259896      1.036064      0.832968
Pb      11.65270      3.85604      8.72535        -0.373762      0.312159     -0.718749
Pb      11.64728      0.00491      8.66991         0.112788     -0.323861     -0.212163
Pb      11.51169      3.85827     12.88130        -0.302715     -0.051808      0.635057
Pb      11.46591      0.06486     12.95561         0.356300     -0.579126     -0.693447
Pb      11.57252      7.68403      4.16840        -0.113882     -0.353646      0.929592
Pb      11.52501      7.62502      0.05150         0.260261     -0.109523     -0.512542
Pb      11.42722      7.73808      8.58827         0.615287     -0.439356     -0.022000
Pb      11.59284      7.53539     12.99850         0.174818      0.461919      0.250056
Pb      11.64419     11.61514      4.38574        -0.541973     -0.029086     -0.348505
Pb      11.59045     11.62342     17.29688         0.351754      0.066309     -0.030141
Pb      11.74552     11.69675      8.65817         0.100463     -0.109672     -0.051733
Pb      11.57439     11.49276     12.84514         0.130779      0.630248      0.233788
Ti       1.90999      1.88665      2.36462        -0.164210      0.084055      0.904747
Ti       1.81535      1.91074     15.30896         0.480187      0.535607      1.280052
Ti       1.93383     13.53937      2.32635        -0.265867     -0.508106      2.127782
Ti       1.88710     13.45782     15.24062        -0.132375      0.228380      1.249970
Ti      13.52482      1.93164      2.25880        -0.151947      0.266033     -0.945167
Ti      13.45694      1.95868     15.25768        -0.607276      0.166620      0.767722
Ti      13.45556     13.53232      2.34329         0.298496     -0.123159      0.603916
Ti      13.48896     13.52530     15.28462         0.688418     -1.251530     -0.015796
Ti       1.95670      1.90402      6.65701        -0.641325     -0.377744      0.438575
Ti       1.87384     13.44897      6.64854         1.022166      1.644919     -0.206515
Ti      13.54566      1.88933      6.61365         0.156720      0.059907      0.871707
Ti      13.50552     13.53644      6.53477         0.513207      0.110350      1.194887
Ti       1.83088      2.00686     11.03571        -0.237208     -0.665102     -0.158855
Ti       1.92698     13.39721     11.05625        -1.064352      1.305865      2.082670
Ti      13.39253      1.86450     10.95168         0.905872     -0.071368      1.686970
Ti      13.52965     13.43208     10.99513        -0.896978      1.097226      0.744768
Ti       1.96178      5.76007      2.36155        -0.704465      0.171349     -0.829821
Ti       1.97005      5.89725     15.35768        -0.592511     -1.291541     -0.104208
Ti      13.51598      5.83502      2.37784        -0.225796     -0.500682     -0.348703
Ti      13.58365      5.80199     15.37217        -0.875614     -0.684960     -0.244695
Ti       1.84842      5.80829      6.56279         0.992029     -0.137721      0.344499
Ti      13.49191      5.80184      6.62082        -0.275882      0.064126      0.732518
Ti       1.78987      5.83031     10.99036         1.568495     -1.066071     -0.142622
Ti      13.48273      5.70826     10.93043        -0.163725      0.744565      0.644884
Ti       1.94598      9.71482      2.39656         0.602793      0.255681      0.244525
Ti       2.00570      9.68146     15.37794        -0.652804     -0.116288      0.857826
Ti      13.50014      9.71251      2.40527         0.437423     -0.706523     -0.189706
Ti      13.54651      9.58509     15.43185         0.493451      1.393061     -1.303481
Ti       2.03746      9.67127      6.66013        -0.811892     -0.271592      1.308029
Ti      13.57788      9.60350      6.60611        -0.062772      0.705787      1.159202
Ti       1.91028      9.61714     10.88855         0.633265     -0.336132      0.894188
Ti      13.45928      9.55307     10.92079        -0.035283      0.516890      1.212753
Ti       5.85645      1.92088      2.29057        -0.071715     -0.705410      0.788013
Ti       5.74380      1.93217     15.22881        -0.540257     -0.073843      0.118062
Ti       5.76562     13.49064      2.31340         0.854432      0.001131      0.378037
Ti       5.75969     13.48090     15.19586        -0.456590      0.155968      0.708757
Ti       5.84676      1.95393      6.59750         0.271829     -0.970234      0.373265
Ti       5.74090     13.50942      6.69109         0.157942      0.741182      0.418512
Ti       5.69601      1.96774     10.94120        -0.126195      0.507441     -0.519831
Ti       5.76061     13.59690     10.98398        -0.686020     -0.544170     -0.482049
Ti       5.86337      5.71595      2.30190        -0.063789      0.497837      1.223050
Ti       5.82741      5.89050     15.37796         0.331003     -0.419820      0.565126
Ti       5.78270      5.84437      6.69602        -1.138770      0.353496     -0.771676
Ti       5.78912      5.88946     10.99454        -0.155932     -0.922106      0.469707
Ti       5.86605      9.69615      2.29278        -0.913161      0.107525      0.631176
Ti       5.86505      9.68110     15.36065        -0.650511     -0.143670     -0.809990
Ti       5.74360      9.73447      6.69032         0.687943     -1.324762      0.848431
Ti       5.79928      9.61656     10.87603        -0.754918      1.135605      1.126343
Ti       9.76305      1.87560      2.22033        -0.889796      0.635833      2.392899
Ti       9.56738      1.79986     15.30626         0.448675      1.875260      0.687817
Ti       9.58560     13.54424      2.26222         0.768416     -0.647379      1.800825
Ti       9.60269     13.55781     15.23482        -0.208743     -0.395719      0.988618
Ti       9.75521      1.97955      6.66593        -0.711364     -0.623076      0.464266
Ti       9.68786     13.55242      6.69359        -0.245590     -0.104552      1.091917
Ti       9.57143      1.98318     10.85367        -0.195855      0.591162      1.666928
Ti       9.54673     13.65114     10.89832         1.755982     -0.325126      2.320260
Ti       9.63862      5.80089      2.20828         0.403624     -0.860151      0.623766
Ti       9.65693      5.74185     15.36118        -0.004669      0.154339     -0.262842
Ti       9.56408      5.80222      6.66734         1.167116     -0.137941      0.700466
Ti       9.64090      5.89428     11.00941        -0.694397     -1.707145     -1.190798
Ti       9.61825      9.71569      2.32645         0.167437      0.226878      0.936452
Ti       9.75588      9.73390     15.30413        -1.174653     -1.004751      0.955239
Ti       9.71370      9.66482      6.66227        -0.277289     -0.243101      0.724989
Ti       9.63728      9.70907     10.90557         0.296028     -0.003705      1.381394
O       1.93155      1.98750      0.65307        -0.091319     -0.338308     -1.352175
O       1.81410      1.95256     13.61664         0.184889     -0.199285     -1.336145
O       1.93539     13.56872      0.64997         0.131691      0.100769     -2.462926
O       1.98134     13.42838     13.52044        -0.383930      0.183428     -0.775489
O      13.55345      1.81075      0.44231         0.003567      0.394685      0.797602
O      13.34624      2.07837     13.50026         0.472641     -0.219009      0.407003
O      13.43321     13.47891      0.59880         0.188366      0.454070     -0.747689
O      13.33040     13.31147     13.57046         0.298156      0.595613     -0.324703
O       1.91571      1.96057      4.91738         0.340994     -0.319849     -0.943194
O       1.92949     13.58812      4.90826         0.181732     -0.153548     -0.078988
O      13.53973      1.99331      4.88946        -0.331945     -0.105720     -0.615093
O      13.52374     13.43779      4.76577        -0.176937      0.040343      0.126218
O       1.83394      2.07373      9.27419        -0.121547     -0.177359     -0.268024
O       1.82530     13.48729      9.39385         0.104531     -0.044469     -2.802780
O      13.46440      1.84964      9.23025         0.014726      0.073963     -0.941000
O      13.41936     13.52653      9.26590         0.333184      0.210128     -1.031605
O       1.70464      5.94322      0.54343         1.208273     -0.467946      1.672490
O       1.96389      5.96268     13.58319        -0.039236     -0.177463     -0.118075
O      13.39039      6.08801      0.62698         0.492563     -0.686798     -0.179335
O      13.49553      5.72514     13.57496         0.359809      0.210396      0.201683
O       1.86350      5.75855      4.81470         0.151257     -0.009516     -0.066120
O      13.55996      5.81332      4.87485        -0.364535     -0.297061     -0.326802
O       1.89161      5.59962      9.24398        -0.072176      0.695475      0.236106
O      13.58068      5.75093      9.22664        -0.361139      0.093741     -1.056812
O       1.94265      9.63563      0.65529         0.150706     -0.221737     -0.665221
O       1.86052      9.69262     13.65044         0.007948     -0.199003     -0.570451
O      13.43464      9.48291      0.66374        -0.123392      0.503658     -0.489793
O      13.58519      9.84074     13.56693        -0.122062     -0.980575      1.774436
O       2.16954      9.76432      4.96491        -0.328403     -0.301224     -1.566487
O      13.72478      9.88568      4.90230        -0.647753     -0.672694     -0.749022
O       1.91259      9.48806      9.16349        -0.410333      0.612872     -0.120949
O      13.53565      9.62914      9.21556         0.007248     -0.266103     -1.394373
O       5.78272      1.96654      0.54219         0.086037     -0.418434     -0.137641
O       5.48788      1.93379     13.48002         1.042532     -0.207162     -0.122723
O       5.77382     13.35427      0.53886         0.106927      0.483651      0.431475
O       5.72942     13.31713     13.44284         0.276376      0.692029     -0.097451
O       5.84421      1.93938      4.80733        -0.254500     -0.036238      0.685041
O       5.80154     13.53695      4.92418        -0.129351     -0.153160     -0.068446
O       5.68494      1.87740      9.12530         0.199778      0.558275      1.038369
O       5.64077     13.70449      9.21636         0.335760     -0.690218      0.100020
O       5.90912      5.71525      0.61345        -0.265237      0.020899     -1.411344
O       5.80402      5.94532     13.63463        -0.026400      0.026117     -0.320457
O       5.92420      5.93225      4.96844        -0.136038     -0.123430     -1.231025
O       5.96021      5.82145      9.25528        -0.575964     -0.067686     -0.761377
O       5.87885      9.80856      0.53854        -0.136658      0.027195     -0.108202
O       5.75779      9.76193     13.55861         0.634031     -0.438982      0.760876
O       5.65453      9.70557      4.93778         0.172676      0.006434      0.178799
O       5.82775      9.73242      9.14966         0.153804     -0.080449     -0.836485
O       9.50146      1.93677      0.53856         0.438935     -0.400070     -0.941332
O       9.59382      1.77195     13.57292        -0.295274      0.056974     -0.316143
O       9.65862     13.55545      0.53284        -0.211884      0.003077     -0.713422
O       9.63053     13.68076     13.52616        -0.141396     -0.006675     -0.761893
O       9.79269      1.97266      4.89110         0.050911      0.068506     -0.182230
O       9.64978     13.45917      4.97499         0.300081      0.114382     -0.496804
O       9.74087      2.09317      9.14962        -0.358793     -0.640834     -0.625054
O       9.65123     13.76909      9.21524         0.094284     -0.470346     -1.960381
O       9.67817      5.71565      0.46378        -0.063220      0.318634     -0.454917
O       9.57472      5.71379     13.56811         0.008721      0.219760     -0.085060
O       9.62141      5.91877      4.91636         0.098015     -0.663654     -0.179127
O       9.64298      5.79438      9.22289         0.108664      0.399759      0.665876
O       9.63453      9.59676      0.59033         0.148277      0.601496     -0.386167
O       9.55804      9.69106     13.59244         0.193228      0.131938     -0.687977
O       9.62099      9.72106      4.95476         0.193216     -0.230240     -1.316306
O       9.62036      9.51000      9.19779         0.213060      0.327736     -0.453119
O       3.89945      1.75889      2.71257        -0.220687      0.193118      0.073063
O       3.90324      1.96921     15.65847        -1.305169     -0.700410      0.708234
O       3.92423     13.56488      2.62540         0.028067      0.175466      0.413348
O       3.83705     13.42742     15.61208         0.104853      0.387821      0.398171
O      15.33891      1.91616      2.70868         1.707112      0.358527      0.055855
O      15.39095      2.12194     15.67659         0.144506     -0.422105     -0.077791
O       0.06290     13.41634      2.77526        -1.293770      0.518659     -0.296546
O       0.01446     13.45255     15.68408        -0.536204      0.467632      0.043380
O       3.87038      1.89076      7.11118         0.475034      0.360583     -0.805852
O       3.85295     13.57962      7.09318         0.067825      0.053357     -0.186802
O      15.43149      1.76924      7.01570        -0.472664      0.999951      0.112487
O      15.44474     13.55558      6.99749        -0.601217     -0.301448      0.255595
O       3.72634      1.90013     11.35544         0.697378      0.173427      0.209453
O       3.78634     13.55315     11.46277         0.460097     -0.084046     -0.251614
O      15.34911      1.96747     11.49342        -0.221363      0.108281     -0.230499
O      15.38186     13.43235     11.42916         0.186171      0.166492      0.185889
O       3.93316      5.85056      2.74821        -0.212893     -0.640759     -0.958494
O       3.89875      5.91436     15.86324         0.046163     -0.050793     -0.255415
O       0.00185      5.67115      2.75370         0.236255      0.441457     -0.253887
O      15.40996      5.75187     15.78091        -0.020912      0.006802     -0.280701
O       3.84805      5.83510      7.02381        -0.381986     -0.877089      0.088255
O      15.46235      5.81899      7.03732        -0.371351      0.047116     -0.099875
O       3.91547      5.85149     11.33518        -0.551274      0.451712      0.336922
O      15.37910      5.78866     11.27820         0.295341      0.090397      0.712235
O       3.87330      9.59479      2.75943         0.761014      0.462059     -0.362560
O       3.91002      9.63829     15.72915        -0.513339     -0.165737      0.214618
O       0.00141      9.61361      2.72844         0.160845      0.297784      0.105076
O      15.43802      9.77365     15.98159        -0.462632     -1.203427     -0.974423
O       3.81625      9.66006      7.29058         1.297854      0.253089     -0.489389
O       0.07997      9.70812      7.05206        -0.605561     -0.253396      0.161101
O       3.86021      9.56555     11.19121        -0.375522      0.240553      0.362560
O      15.38435      9.65369     11.38435         0.495383     -0.576790     -0.447754
O       7.77162      1.88955      2.75403         0.400970      0.516517     -0.312554
O       7.61565      1.89997     15.63233         1.012855     -0.525971      0.104521
O       7.79532     13.45084      2.88457        -0.638171      0.485402     -0.838678
O       7.67430     13.51035     15.64969         0.280541      0.027566     -0.168635
O       7.71634      1.99386      7.02151        -0.097543     -0.240805     -0.309749
O       7.78153     13.43559      7.17580        -0.211498     -0.044278     -0.107099
O       7.57787      1.88740     11.36014         0.141684      0.627593     -0.053208
O       7.63828     13.57163     11.21786         0.336442     -0.281574      0.515487
O       7.83593      5.59045      2.73877        -1.700584      0.619726     -0.066339
O       7.71182      5.76930     15.78511        -0.249492      0.127572     -0.076058
O       7.67733      5.74037      7.07765         1.035881      0.574996      0.015969
O       7.74423      5.81661     11.41202        -0.395266      0.133349      0.469450
O       7.71712      9.73788      2.86556         0.712754     -0.266562     -0.624283
O       7.76070      9.74991     15.88025         0.284210     -0.548061     -0.934746
O       7.75338      9.68444      7.01180        -0.650741      0.103901      0.151545
O       7.68817      9.67993     11.36024         1.427108      0.398874     -0.038648
O      11.71289      1.76168      2.71665        -1.950357      0.552813     -0.184059
O      11.53682      1.90176     15.70419        -0.047168     -0.563009     -0.070658
O      11.57204     13.52203      2.70899         0.178703     -0.115288      0.114029
O      11.56651     13.54928     15.83480        -0.059061     -0.153608     -0.976576
O      11.60172      2.02259      7.06267         0.192266     -0.442372     -0.039969
O      11.64521     13.59206      7.09645        -0.521047     -0.647106     -0.211790
O      11.48189      1.96492     11.35657        -0.217136     -0.453897     -0.207118
O      11.48427     13.76366     11.31807        -0.085541     -0.507768      0.196545
O      11.52704      5.84361      2.62309         0.494468      0.537781      0.580852
O      11.54769      5.79840     15.63980         0.197106     -0.125152      0.585563
O      11.60079      5.82915      7.14737        -0.199897     -0.311452     -0.525637
O      11.57453      5.75731     11.45787        -0.387167      0.294465     -0.412888
O      11.59840      9.57705      2.87957        -0.513286      0.563196     -0.683836
O      11.59479      9.73774     15.72126         0.307550      0.016527      0.008606
O      11.65896      9.58789      6.93014        -0.145380      0.026749      0.208009
O      11.58006      9.59097     11.48777        -0.668683     -0.089072     -0.718661
O       2.03947      3.77003      2.76126        -0.252953      0.828222     -0.145765
O       2.03199      3.95297     15.67769        -0.256326     -0.820571      0.189885
O       1.80415     15.44517      2.78593         0.652051      0.370855     -0.194089
O       1.79216     15.45757     15.76011         0.654942      0.310991     -0.275628
O      13.48257      3.87622      2.61401        -0.167946     -0.134872      0.026049
O      13.36331      3.86381     15.88023         0.723182      0.061296     -0.457997
O      13.58634     15.45817      2.69457        -0.216189     -0.831647     -0.075416
O      13.62953      0.00843     15.63636        -0.504379      0.007940     -0.269987
O       1.81153      3.83116      6.99024         0.579090      0.265592      0.092699
O       1.84322      0.05381      7.15834         0.680281     -0.768789     -0.005071
O      13.48095      3.87662      7.04823         0.374079     -0.158476     -0.212606
O      13.40302     15.42853      6.91697         0.257659      0.222882      0.059775
O       1.90935      3.90800     11.49381        -0.233763      0.316535      0.138125
O       1.77390      0.03463     11.37781         0.068206     -0.316491      0.489646
O      13.37533      3.84516     11.32750         0.446319     -0.123870      0.034181
O      13.46163      0.00153     11.40978         0.330578      0.263142      0.228501
O       1.93069      7.68171      2.81724        -0.002182     -0.129179     -0.395112
O       1.81100      7.71305     15.68699         0.291589      1.435685      0.646168
O      13.60264      7.70242      2.85860        -0.300565      0.437349      0.055406
O      13.43642      7.69836     15.68018         0.372203      0.859555     -0.117958
O       2.01965      7.69171      7.06121        -0.784269      0.114764     -0.309671
O      13.57826      7.71393      7.05439         0.106932      0.399396     -0.236916
O       1.98867      7.70834     11.39689        -1.003766      0.259970     -0.039719
O      13.47125      7.67871     11.35333         0.110836     -0.160372      0.237107
O       1.98383     11.61352      2.71258         0.117445     -0.574052      0.162140
O       1.87296     11.55880     15.78830         0.485146      0.287510     -0.055453
O      13.56545     11.57296      2.67826        -0.455944      0.218272      0.103168
O      13.61001     11.64784     15.78930        -1.039794     -0.634499      0.467326
O       1.99297     11.63548      6.97864        -0.322488     -0.571519      0.657741
O      13.50258     11.62427      7.12084         0.195435     -0.144494     -0.346145
O       1.95297     11.49574     11.37632        -0.147458     -0.260857     -0.268746
O      13.38460     11.57433     11.13712        -0.239605     -0.700374      0.883011
O       5.71323      3.82899      2.72816         0.487344     -0.142818      0.047362
O       5.85022      3.81513     15.68672        -0.587689      0.823883     -0.153848
O       5.93752     15.44414      2.74022        -0.338863     -0.551931     -0.433118
O       5.79263     15.36442     15.69085        -0.390608      0.505216     -0.162159
O       5.85535      3.95634      6.89568        -0.733002     -2.054002      0.406726
O       5.94215     15.41003      7.01666        -0.533735      0.866927     -0.113852
O       5.65220      3.92471     11.39249         0.607606     -0.722221     -0.059527
O       5.68792      0.00450     11.26324        -0.138914      0.563913      0.884880
O       5.89946      7.81699      2.50488         0.182190     -1.514034      0.545382
O       5.84970      7.79049     15.90602         0.066737     -0.237527     -0.374124
O       5.69932      7.72918      7.12512         0.478844      0.861519     -0.011935
O       5.89901      7.83069     11.29276        -0.171195     -1.517139      0.497381
O       5.94851     11.58588      2.85930        -1.129155      0.556482     -0.527906
O       5.78582     11.56415     15.67721         0.145835      0.499281      0.248644
O       5.75103     11.59748      7.15003        -0.024182     -0.164645     -0.209785
O       5.68110     11.60044     11.31457         0.343987      0.015048     -0.100705
O       9.78833      3.88244      2.67762         0.072286     -1.380535      0.050384
O       9.61484      3.78306     15.71654        -0.076974     -0.229486      0.021733
O       9.69035     15.39963      2.78171        -0.028344      0.858332     -0.467416
O       9.54407     15.43903     15.83792         0.387351     -0.339937     -0.418717
O       9.65275      3.82610      7.09948         0.021662      1.098409     -0.550442
O       9.65236     15.45552      7.06242         0.082284      0.625166     -0.139255
O       9.54938      3.88382     11.36987         0.089369     -0.507631      0.175266
O       9.42651      0.11157     11.36576         0.485762     -0.400955     -0.085881
O       9.47957      7.73367      2.61262         0.738271      0.121642      0.013233
O       9.64177      7.68291     15.64900        -0.192055      1.169111      0.251505
O       9.67423      7.67029      7.05038        -0.386681      0.521967     -0.050115
O       9.67373      7.71484     11.46104        -0.117236      1.033883     -0.087740
O       9.64982     11.60638      2.82068         0.494141     -0.470457     -0.630113
O       9.63672     11.69398     15.67114         0.387546     -0.870906     -0.074254
O       9.78118     11.55115      7.17212        -0.128158      0.328722     -0.106781
O       9.76241     11.67016     11.22004        -0.783297     -0.861475     -0.181785
