  # total energy = -7883.58815124 
CRSYTAL
PRIMVEC
    15.6080000000000005    0.0000000000000000    0.0000000000000000
     0.0000000000000000   15.6080000000000005    0.0000000000000000
     0.0000000000000000    0.0000000000000000   16.6239999999999988
PRESSURE
-0.676811 -0.941809 1.51037 -0.117616 -0.069787 0.018704
PRIMCOORD
320 1
Pb       3.90373      3.88850      4.13828        -0.306887     -0.140440     -0.620487
Pb       3.89458      3.86734     16.59736        -0.029428      0.043920      0.307571
Pb       3.91005     15.59144      4.12701        -0.488746      0.180341     -0.420079
Pb       3.88986     15.60317     16.61578        -0.464089      0.111388      0.348427
Pb      15.60739      3.87801      4.13316         0.209642      0.186764     -0.102100
Pb      15.59460      3.88269     16.60259         0.261811     -0.154340      0.305631
Pb      15.58011     15.59593      4.12803         0.143855     -0.032894     -0.383576
Pb      15.59163     15.59611     16.59434         0.486381     -0.053926      0.306269
Pb       3.89426      3.87365      8.27842        -0.525835     -0.086350     -0.395422
Pb       3.88616     15.59508      8.31486         0.018155     -0.048392     -0.403336
Pb      15.58781      3.87210      8.29005         0.084086     -0.161309     -0.304029
Pb      15.57079     15.58340      8.27714        -0.128183      0.650982     -0.333441
Pb       3.87033      3.87741     12.42550        -0.106641     -0.229691      0.311861
Pb       3.87718      0.00626     12.43141         0.136947     -0.149399      0.242987
Pb      15.60113      3.88789     12.43483         0.162900     -0.731966      0.081883
Pb      15.56221     15.56737     12.40600         0.209670      0.364398      0.039984
Pb       3.88465      7.81542      4.12963        -0.044816     -0.249738     -0.396091
Pb       3.89269      7.79603     16.59603         0.289264     -0.000681     -0.025850
Pb      15.60028      7.77997      4.12834        -0.126285     -0.275382     -0.255618
Pb      15.59642      7.80932     16.58969        -0.384260      0.031723     -0.136730
Pb       3.89751      7.79219      8.30580         0.339432      0.366965      0.226536
Pb      15.59544      7.78675      8.30457        -0.103067     -0.307124     -0.635321
Pb       3.87745      7.76758     12.46063         0.058292      0.304703     -0.238515
Pb      15.59007      7.77598     12.43546        -0.244992     -0.304889      0.664626
Pb       3.87059     11.70581      4.15968         0.146516     -0.140698     -0.497839
Pb       3.85747     11.69834     16.61811         0.133345     -0.217979     -0.225680
Pb      15.60339     11.68020      4.12329        -0.214954      0.146320     -0.075744
Pb      15.58026     11.67933     16.58686        -0.149954      0.391371     -0.457381
Pb       3.87848     11.67326      8.27254         0.323326     -0.086984      0.302963
Pb      15.58287     11.68250      8.27598        -0.245691     -0.017356     -0.360929
Pb       3.92138     11.70209     12.43571         0.140833     -0.166366      0.065081
Pb      15.57405     11.68466     12.43953        -0.286585      0.841728      0.486070
Pb       7.80993      3.88412      4.09277         0.155171      0.472046     -0.000882
Pb       7.79307      3.89070     16.58019        -0.299412      0.036882      0.297539
Pb       7.81924     15.59065      4.11929        -0.046459     -0.348873      0.372223
Pb       7.76903     15.57213     16.58966         0.101064     -0.201704     -0.047682
Pb       7.75956      3.89578      8.25110         0.351194     -0.263090      0.018798
Pb       7.77818     15.59179      8.28810         0.123977     -0.000257     -0.066044
Pb       7.78870      3.88734     12.43359         0.257115     -0.316279      0.170372
Pb       7.81480      0.00911     12.45043        -0.176909     -0.453970      0.004518
Pb       7.77282      7.79247      4.12370        -0.000697     -0.268612     -0.184664
Pb       7.77127      7.79439     16.61582         0.043734     -0.164960     -0.348652
Pb       7.78058      7.80086      8.28416        -0.322862      0.296168     -0.294676
Pb       7.78137      7.80689     12.44001        -0.002948     -0.211285     -0.031381
Pb       7.77784     11.69470      4.11513         0.131102      0.021321      0.515817
Pb       7.79707     11.72120     16.59631        -0.182583      0.057246     -0.518022
Pb       7.76985     11.67044      8.25826         0.294919      0.096935     -0.187487
Pb       7.79058     11.66308     12.45823         0.132958      0.626960     -0.261645
Pb      11.66113      3.88153      4.11390        -0.180868      0.058414     -0.081676
Pb      11.69326      3.87221     16.58918         0.022035     -0.106416      0.265782
Pb      11.68243     15.58268      4.14023         0.337651     -0.499697     -0.305874
Pb      11.70703     15.59187     16.61800        -0.073189     -0.223023     -0.185407
Pb      11.67185      3.89805      8.30329        -0.010744     -0.078974     -0.303220
Pb      11.67765     15.60573      8.27315         0.048453     -0.150578     -0.417414
Pb      11.67692      3.85682     12.43139        -0.125324     -0.264540     -0.250334
Pb      11.67762     15.56349     12.42879        -0.058226      0.101336      0.044704
Pb      11.64570      7.76729      4.13269         0.095861     -0.039217     -0.399140
Pb      11.70638      7.79159     16.59151         0.026269      0.318934      0.206065
Pb      11.70203      7.76699      8.32185        -0.089402      0.473048     -0.500711
Pb      11.67738      7.77952     12.44636         0.106683      0.071602      0.294212
Pb      11.66362     11.66642      4.09963         0.045884      0.263193      0.478307
Pb      11.70224     11.66571     16.57135         0.190737     -0.072344     -0.054496
Pb      11.65968     11.68902      8.28281        -0.431115     -0.216289     -0.368881
Pb      11.69580     11.67676     12.43468        -0.275062      0.206534     -0.189609
Ti       1.95539      1.93615      2.21380        -0.000524     -0.150066      0.020529
Ti       1.93100      1.92451     14.70092        -0.371845      0.239107      0.030913
Ti       1.90237     13.62319      2.21406         0.396800      0.733214      0.342948
Ti       2.00442     13.70961     14.62399        -2.274630     -0.937000      1.749613
Ti      13.65570      1.97762      2.20756         0.186388     -0.527959      1.776250
Ti      13.61903      1.91502     14.71054         0.612140      0.282281     -1.277001
Ti      13.66014     13.63543      2.19756        -0.481835     -0.204392      1.799450
Ti      13.66585     13.68504     14.62936         0.476700     -1.346507      0.453272
Ti       1.94236      1.91998      6.39031        -0.841451      0.586772      0.120674
Ti       1.96822     13.62743      6.40462        -0.684662      0.804653     -0.075334
Ti      13.58571      1.95587      6.32926         0.987928     -0.394506      0.439612
Ti      13.64617     13.63176      6.42058        -0.766289     -0.381567     -1.835591
Ti       1.99226      1.92992     10.48668        -2.029031     -0.074120     -0.033489
Ti       1.91217     13.61440     10.49671        -0.024927      0.553225      3.080311
Ti      13.66229      1.95122     10.53035         0.330363     -0.677975     -0.023378
Ti      13.59135     13.66916     10.51325         0.267356     -0.363349      0.305500
Ti       1.94251      5.85263      2.17568        -0.111125     -0.845049      0.799013
Ti       1.92026      5.85622     14.74040        -0.215359     -0.810642      0.240256
Ti      13.60145      5.83048      2.20122         0.279881      0.300595      1.919571
Ti      13.63230      5.81931     14.69178         0.208160      0.280458      1.126607
Ti       1.99161      5.86877      6.43213        -1.703247     -1.228770     -1.103953
Ti      13.63081      5.80831      6.35732         0.562530     -0.161383     -0.677516
Ti       1.91540      5.86687     10.53631         0.202120     -0.696025     -1.721801
Ti      13.60431      5.85141     10.53957         0.162167     -0.625668     -0.454744
Ti       1.93625      9.74413      2.21295        -0.025601     -0.349076      1.670088
Ti       1.95797      9.77881     14.68303         0.130938      0.624766      1.107786
Ti      13.62699      9.79049      2.20754        -0.257065     -0.584051      1.120273
Ti      13.63007      9.72860     14.64577        -0.122801      0.244003      1.723040
Ti       1.93854      9.72054      6.40743        -0.209572     -0.047036     -0.418029
Ti      13.65390      9.69773      6.36181        -1.223274      0.337233     -0.212637
Ti       1.83368      9.77283     10.63090         1.518160      0.103869     -2.347068
Ti      13.62286      9.70884     10.54204        -1.446973      1.089150     -0.704955
Ti       5.92554      1.87849      2.25316        -2.170155      1.178482     -0.283241
Ti       5.85620      1.86300     14.74213        -0.147709      0.938740     -1.026416
Ti       5.82330     13.66863      2.23439        -0.281873     -0.730235     -0.342367
Ti       5.77868     13.63221     14.73621         0.992213     -0.822939     -0.120757
Ti       5.80901      1.89964      6.34464         0.676882      0.659403     -0.381481
Ti       5.80241     13.64804      6.41372         1.280813     -0.596179     -0.745179
Ti       5.73745      1.91391     10.48593         2.142296     -0.398185      0.959094
Ti       5.79499     13.60919     10.58665         1.013526      0.074556     -1.081356
Ti       5.85223      5.80803      2.21340        -0.037680     -0.118908      0.110059
Ti       5.80377      5.82376     14.66403         0.620707     -0.096794      2.597496
Ti       5.82884      5.80053      6.39107         0.695486      0.519231     -1.155242
Ti       5.85224      5.80875     10.54513         0.386913      0.559539     -0.953463
Ti       5.86237      9.76790      2.14680        -0.683844     -0.375977      0.842125
Ti       5.86391      9.71625     14.65947        -0.578192      0.482522      3.072361
Ti       5.77043      9.76888      6.34662         2.089410      0.032926      0.887378
Ti       5.80925      9.70431     10.54366         0.188597      0.421572     -0.673113
Ti       9.73665      1.85565      2.17274         0.575012      1.558415      1.072597
Ti       9.70618      1.91664     14.64146         0.024554      0.053948      2.522839
Ti       9.72577     13.57771      2.19734         0.542946      0.291798      0.521977
Ti       9.74689     13.65721     14.71624        -0.477831     -0.259827     -1.371736
Ti       9.74368      1.94007      6.36232        -0.873197      0.360667      1.063812
Ti       9.71028     13.68881      6.38993         0.237764     -1.638923      0.598209
Ti       9.72821      1.92266     10.51293        -0.169696     -0.146952      0.533691
Ti       9.73161     13.61066     10.52947        -0.991334     -0.261624     -0.244711
Ti       9.74316      5.80918      2.14589        -0.033209      0.242155      3.639338
Ti       9.73355      5.82554     14.73155        -0.045774      0.351839      0.000316
Ti       9.78430      5.82949      6.34293        -0.414318      0.049324     -1.259597
Ti       9.75158      5.87410     10.50535        -0.298574     -0.940812      1.323741
Ti       9.74622      9.69705      2.21542         0.217319      0.046141      1.861661
Ti       9.71858      9.73127     14.61562         0.153135     -0.091675      3.669387
Ti       9.72303      9.67305      6.39747         0.204061      1.647011     -0.388181
Ti       9.73826      9.70291     10.52270        -0.331654      0.840754      0.517988
O       1.86082      1.81276      0.44474         0.393619      0.107098     -1.148304
O       1.88215      1.93479     12.89636         0.434079      0.113688      0.758739
O       1.90127     13.77008      0.46897         0.133667     -0.506977     -0.394555
O       1.85960     13.70541     12.93216         0.256228     -0.170160     -2.649973
O      13.57390      2.00294      0.50174         0.159082     -0.454198     -1.885896
O      13.66312      1.88091     12.88226        -0.060970      0.269639      1.363674
O      13.65459     13.59043      0.48981        -0.132622      0.020562     -1.947925
O      13.63079     13.66878     12.83620        -0.024614     -0.221961      0.390710
O       1.95534      2.01305      4.62557        -0.060872     -0.434206      0.051325
O       1.85603     13.56059      4.68378         0.371654      0.343132     -1.511575
O      13.60913      1.97248      4.56992         0.100792     -0.611503     -0.539437
O      13.56182     13.59570      4.53427         0.525350      0.280485      1.813514
O       1.86141      1.97366      8.69915         0.750352     -0.330731      0.420368
O       1.91696     13.59252      8.82169         0.196914      0.103127     -2.409639
O      13.76041      1.89695      8.75193        -0.826818     -0.129652      0.030374
O      13.62492     13.64479      8.73188        -0.069454      0.245072      0.216253
O       1.98119      5.69941      0.40298        -0.143839      1.058538      0.147163
O       1.93207      5.77215     12.96216         0.113280      0.187220     -0.939672
O      13.62603      5.90521      0.47746         0.110411     -0.290678     -1.138553
O      13.64750      5.92568     12.93806         0.098479     -0.477415     -0.666919
O       2.00249      5.88001      4.64276        -0.271674     -0.315012      0.166457
O      13.67610      5.74458      4.56196        -0.166631      0.281153      0.935119
O       1.86710      5.79637      8.66673         0.220592      0.416755      2.217402
O      13.61035      5.80548      8.74545        -0.007087      0.191287      1.300042
O       2.01379      9.74168      0.49228        -0.255014     -0.238951     -1.828706
O       2.03884      9.78108     12.93384        -0.401055     -0.263027     -0.953231
O      13.51788      9.74887      0.48670         0.540417     -0.204507     -1.050906
O      13.61879      9.68855     12.92498        -0.028832      0.203839     -1.706175
O       1.92181      9.70691      4.61983         0.187268      0.276222      1.267081
O      13.67385      9.73600      4.57995        -0.252371     -0.032583      0.559073
O       1.90007      9.75167      8.72618        -0.318712      0.086926      1.356870
O      13.58116      9.74439      8.74404         0.582409     -0.423523      0.713259
O       5.96573      1.88358      0.45969        -0.521615     -0.289192     -0.304614
O       5.78701      1.96131     12.93670         0.032996     -0.283228      0.531085
O       5.78712     13.65915      0.41222         0.084769     -0.043596      0.816882
O       5.82633     13.66719     12.98138        -0.318546     -0.184918     -0.886835
O       5.82710      1.96386      4.55604        -0.112374     -0.238879      0.110802
O       5.88362     13.54881      4.60308        -0.406461      0.421240      0.434934
O       5.78693      1.98487      8.72445        -0.091855     -0.286094      0.304688
O       5.84661     13.62401      8.74854        -0.336656      0.246889      0.652014
O       5.81710      5.86665      0.43960         0.104434     -0.136741     -0.335864
O       5.87134      5.93681     12.95886        -0.378888     -0.248364     -2.004821
O       5.89318      5.82891      4.55156        -0.324291     -0.188091      2.016143
O       5.92397      5.94741      8.72785        -0.476552     -0.751489      1.019668
O       5.86028      9.82094      0.38001        -0.101235     -0.477032      0.863313
O       5.86126      9.75981     12.97618        -0.203384     -0.291924     -3.311944
O       5.80684      9.77928      4.61926        -0.140376     -0.180940     -1.151687
O       5.83661      9.63325      8.76621         0.006547      0.489429      0.369116
O       9.74754      1.88424      0.45137        -0.172632     -0.037080     -1.104210
O       9.72895      1.87593     12.95469         0.234909      0.391608     -1.721799
O       9.68956     13.62447      0.43308         0.124840      0.183834     -0.671929
O       9.67448     13.60767     12.89780         0.245574      0.102410      0.686907
O       9.73371      1.97738      4.63223        -0.319998     -0.136955     -1.210398
O       9.73698     13.62558      4.64250        -0.064708      0.624013     -0.982923
O       9.70019      1.91708      8.75195         0.276743      0.000077     -0.251754
O       9.72265     13.54681      8.71007        -0.105993      0.732550      1.083317
O       9.71032      5.91382      0.48020         0.201878      0.005504     -3.601270
O       9.69995      5.72621     12.97313         0.627161      0.364775     -0.764918
O       9.69324      5.79203      4.50729         0.272759      0.480242      2.113041
O       9.83290      5.75082      8.79265        -0.076158      0.262729     -0.839603
O       9.73565      9.77081      0.51741        -0.396528      0.080777     -1.952415
O       9.77350      9.70460     12.95549        -0.165084     -0.108506     -2.995844
O       9.76093      9.79851      4.61516        -0.192303     -0.506481     -0.087594
O       9.79622      9.73105      8.81030        -0.428825     -0.162512     -1.471290
O       3.80342      1.94444      2.48825         1.784613     -0.425552      0.472175
O       3.91380      1.87776     14.94579        -0.800810      0.176998      0.451670
O       3.85455     13.70200      2.52082         1.075935     -0.457232      0.387434
O       3.79782     13.63076     14.91361         1.894534     -0.016212      0.609018
O       0.07669      1.86021      2.50062        -2.144707      0.167408      0.547743
O      15.57724      1.99639     15.05303         0.005040     -0.726454     -0.167949
O       0.02028     13.63257      2.51159        -0.326016     -0.363117      0.358454
O       0.02065     13.46280     14.93738        -1.464801      1.018914      0.263334
O       3.91690      1.94338      6.69941        -0.640029     -0.042927      0.339771
O       3.91022     13.64618      6.68993        -0.271774      0.222500      0.381902
O      15.54580      1.90814      6.75674         0.589950     -0.148884     -0.501892
O       0.02116     13.56467      6.73405        -1.284757      0.368630      0.209948
O       3.89484      1.91920     10.82953        -0.210532      0.280223     -0.062539
O       3.89747     13.59011     10.86396        -0.768126      0.291443      0.066975
O       0.01004      1.93666     10.87309        -0.188791     -0.226171     -0.041340
O      15.55321     13.59087     10.87980         0.089595      0.069516     -0.407044
O       3.86514      5.81927      2.54760         0.090697      0.101461     -0.034630
O       3.85585      5.77252     15.06294         0.853583      0.262529     -0.471970
O       0.01581      5.83699      2.58960        -0.426463     -0.137011     -0.320076
O      15.60452      5.78833     15.04663        -0.590303      0.597073     -0.008483
O       3.80726      5.88338      6.75312         2.707121     -0.533675      0.034868
O      15.51470      5.78967      6.77852         0.428297      0.562107     -0.265516
O       3.82183      5.81532     10.84709         0.969972     -0.170826      0.070419
O       0.04426      5.72611     10.86680        -0.843119      0.971964     -0.042070
O       3.83246      9.75491      2.58289         1.247114     -0.530510     -0.087824
O       3.95921      9.78189     15.04621        -1.985393     -0.439733     -0.047557
O      15.58801      9.79035      2.55157        -0.124763     -0.346626     -0.197490
O      15.55604      9.70962     15.02294         0.988052     -0.087117     -0.049859
O       3.98350      9.74717      6.79851        -2.761581      0.081334     -0.278500
O      15.57045      9.73079      6.67712         0.458503      0.032481      0.208828
O       3.91069      9.76591     10.81448        -0.796258     -0.044531      0.522992
O      15.49651      9.73538     10.97869         1.453282     -0.066978     -0.496783
O       7.69560      1.97455      2.53653         2.346333     -0.336076      0.250823
O       7.80071      1.99868     15.02041         0.214450     -0.599708     -0.136212
O       7.81230     13.68796      2.58246        -0.724637     -0.264539     -0.270206
O       7.75600     13.61346     14.98963        -0.068544      0.156383      0.485570
O       7.77148      1.91331      6.81611         0.113717      0.507391     -0.452993
O       7.75067     13.48866      6.68240        -0.105110      1.142348      0.229098
O       7.83810      1.84945     10.98428        -0.711784      0.479005     -0.789100
O       7.72858     13.62884     10.91699         0.398518      0.011061     -0.164016
O       7.82541      5.74944      2.50996        -1.229413      0.663158     -0.019775
O       7.86105      5.90923     14.93212        -1.469644     -0.219476      0.595393
O       7.85120      5.74923      6.70954        -0.974350      0.554060     -0.042589
O       7.81406      5.78323     10.86897        -0.709340      0.468518     -0.117539
O       7.72524      9.66743      2.59220         0.435240      0.252864     -0.364209
O       7.70458      9.68922     14.97674         2.262618      0.298856      0.139544
O       7.79147      9.76131      6.67916         0.021809     -0.186561      0.349253
O       7.77663      9.72086     10.79046        -0.047480     -0.242479      0.700737
O      11.65476      2.08227      2.43914        -0.308701     -1.170176      0.378706
O      11.73033      1.96973     14.99414        -0.827051     -0.186999      0.127397
O      11.65176     13.62188      2.56894         0.075818      0.555722     -0.294854
O      11.71402     13.65248     14.96653        -0.260926      0.050379      0.239039
O      11.60492      1.93145      6.61918         1.166269     -0.333125      0.670464
O      11.66615     13.58588      6.70086         0.618934      1.290945      0.244952
O      11.69246      1.85375     10.89828        -0.360963      0.466622     -0.233186
O      11.58106     13.61273     10.88823         1.538473      0.159988     -0.236793
O      11.67194      5.74234      2.64407         0.645945      0.495924     -0.701184
O      11.77378      5.91258     15.09914        -0.777188     -0.765752     -0.453264
O      11.71242      5.89543      6.76101        -0.015111     -0.454581     -0.251510
O      11.72825      5.86973     10.91449        -0.075120     -0.315218     -0.150060
O      11.63649      9.76444      2.46221         0.630295     -0.047719      0.631405
O      11.72545      9.71654     15.00269        -1.369524      0.272265     -0.113290
O      11.60450      9.67961      6.73737         1.428499      0.014429      0.015723
O      11.62440      9.79168     10.79198         1.473397     -0.804363      0.807611
O       1.91881      3.86182      2.47488         0.027463      0.752718      0.398406
O       1.87251      3.90037     15.13176         0.590463     -1.059375     -0.697368
O       1.98928     15.58053      2.57761        -0.319116     -0.620765      0.569037
O       1.87609     15.54994     15.04395         0.047284      1.413964     -0.268117
O      13.56439      3.80925      2.60826         0.957197      0.989782     -0.441987
O      13.69222      3.83870     15.11967        -0.589185      0.685738     -0.742380
O      13.69341     15.50740      2.44149        -0.451630      1.507953      0.546671
O      13.61204     15.52508     15.05348         0.306343      0.997379     -0.043195
O       1.92818      3.87997      6.67194         0.196940     -0.125577      0.416306
O       1.89599     15.58735      6.68775         0.410882      0.001844      0.386746
O      13.68743      3.79395      6.63814        -0.733447      1.306270      0.465107
O      13.62977     15.60030      6.65579        -0.176778     -0.653724      0.263654
O       1.90444      3.80016     10.82314         0.596758      1.322126      0.215574
O       1.93003     15.59878     10.86210         0.258306     -0.460779     -0.372873
O      13.59928      3.80064     10.82655        -0.065286      2.030453      0.328076
O      13.59180      0.00646     10.89888         0.170633     -1.230549     -0.484270
O       1.89247      7.78463      2.65667         0.245676     -0.064972     -0.783587
O       1.92649      7.76245     14.99840         0.141814      0.687478      0.124381
O      13.58954      7.73251      2.56429         0.122529      0.444971     -0.005600
O      13.58385      7.81914     15.03262         0.775159     -0.701749      0.032305
O       1.97740      7.75214      6.64697        -0.463982      1.707279      0.578930
O      13.59815      7.75855      6.73708         0.389438      0.488293     -0.137988
O       2.02760      7.88194     10.82610        -0.801475     -1.389102      0.307606
O      13.63913      7.80355     10.99162         0.214101     -0.754839     -0.837450
O       2.05461     11.62693      2.57081        -0.690683      1.185465     -0.051310
O       1.84321     11.72764     15.01291         0.868845     -1.486692      0.060179
O      13.63119     11.66743      2.50937         0.081296      0.050778      0.181634
O      13.61754     11.66542     15.11715         0.028165      0.232717     -0.684078
O       1.88022     11.78488      6.66585         0.643003     -2.518265      0.641610
O      13.48398     11.69301      6.73269         1.120496     -0.495544     -0.166605
O       1.97857     11.67049     10.86593        -0.557284     -0.007502      0.159134
O      13.58157     11.66924     10.85373         0.225651      0.225551      0.101710
O       5.77549      3.82234      2.51961         0.099879      0.617245      0.076952
O       5.89995      3.83729     15.04936        -0.407714      0.951659     -0.236618
O       5.86276     15.53838      2.59996        -0.180974      0.340699     -0.091434
O       5.81892     15.54585     15.04607         0.111732      0.577293      0.026294
O       5.89768      3.83116      6.71567        -0.699981      1.770993      0.015458
O       5.84878      0.06980      6.64201        -0.083360     -1.880989      0.467507
O       5.91677      3.84990     10.91608        -0.761658      0.762799     -0.495253
O       5.78120      0.00339     10.87760        -0.077760     -0.020339     -0.266819
O       5.81960      7.70769      2.59299         0.045827      0.960185     -0.356189
O       5.85216      7.79243     15.07495        -0.495180     -0.914128     -0.269669
O       5.86008      7.85109      6.77319        -0.033221     -1.679274     -0.556205
O       5.80419      7.79039     10.83106         0.061297     -1.127722      0.617533
O       5.82697     11.64691      2.54073        -0.020824      0.651083     -0.224545
O       5.79427     11.65686     15.06592         0.111893      0.962999     -0.147273
O       5.84681     11.69827      6.70071        -0.535341      0.025653      0.314441
O       5.82875     11.68498     10.90427         0.005263     -0.010483      0.013802
O       9.69355      3.98324      2.53616         0.017779     -2.273513     -0.193623
O       9.68659      3.94850     15.14170         0.746659     -1.083809     -0.473143
O       9.67762      0.02596      2.57889         0.307367     -0.244872     -0.117178
O       9.67139     15.58571     15.02612         0.393000      0.619750      0.000548
O       9.86015      3.96872      6.70717        -0.449470     -0.971228      0.166052
O       9.63328      0.02003      6.69398         0.379680     -0.214725      0.165476
O       9.71901      3.85111     10.88204         0.525352      0.223332      0.021832
O       9.72814     15.57547     10.95300         0.054337     -0.324910     -0.681723
O       9.80863      7.78881      2.54795        -0.433004      0.185869      0.105538
O       9.71875      7.78609     15.05081         0.246006      0.745269     -0.246283
O       9.78675      7.79034      6.74147        -0.485390     -0.817687     -0.075924
O       9.73867      7.75192     10.85834        -0.011330     -0.157544      0.195421
O       9.77994     11.75391      2.56485        -0.745443     -0.980160     -0.180454
O       9.68974     11.76208     14.95221         0.131419     -1.565991      0.291947
O       9.80824     11.76778      6.63904        -0.431495     -1.214949      0.607202
O       9.75323     11.62198     10.85892        -0.425669      0.881767      0.365919
