  # total energy = -7878.83330618 
CRSYTAL
PRIMVEC
    15.464    0.0000000000000000    0.0000000000000000
     0.0000000000000000   15.464    0.0000000000000000
     0.0000000000000000    0.0000000000000000   17.350608
PRESSURE
-1.37406 -1.03614 -5.72448 -0.045291 -0.028558 0.015482
PRIMCOORD
320 1
Pb       4.02307      3.89824      4.50757        -0.214749      0.362751     -0.407962
Pb       4.07389      3.77535     17.14081        -0.506760      0.273906      0.740226
Pb       3.76597      0.22034      4.28241        -0.022897     -1.090527     -0.019023
Pb       4.02492      0.10652     17.27489        -0.838586     -0.929847      0.150799
Pb       0.23594      3.82533      4.50107        -0.624147      0.239855     -0.657739
Pb      15.39123      3.64495     17.29748        -0.104309      0.906066      0.420453
Pb      15.35071     15.44229      4.16720         0.513457     -0.488315      0.258871
Pb      15.39310     15.45575     17.33536         0.377346     -0.031528     -0.156851
Pb       3.85199      3.91457      8.62543        -0.205767      0.019159     -0.009431
Pb       3.86155     15.34533      8.57411        -0.313214      0.209419     -0.093618
Pb      15.33948      3.73738      8.55643         0.479846      0.075039      0.386141
Pb      15.31139     15.38045      8.59069         0.636538      0.074615     -0.089432
Pb       3.77429      3.71071     12.83739         0.089685     -0.160266      0.878952
Pb       4.00481     15.26289     13.05408        -0.815732      0.166426      0.183769
Pb       0.08522      3.99086     12.91793         0.233472     -0.472347      0.161056
Pb       0.07468      0.16401     12.95934         0.149226     -0.662255      0.105442
Pb       3.71227      7.82750      4.23776        -0.207969     -0.419771      0.627615
Pb       3.59855      7.62008      0.02607         0.757855      0.144571      0.193691
Pb      15.30934      7.72087      4.24931         0.255400      0.154357      0.129596
Pb      15.37742      7.69137     17.24968        -0.068612      0.087113      0.299004
Pb       4.02054      7.88801      8.67305        -0.708853     -0.391962      0.367051
Pb       0.20742      7.56271      8.82162        -0.380355      0.294178     -0.281227
Pb       3.89687      7.66444     12.85556        -0.217018      0.296978      0.497710
Pb       0.07921      7.92600     12.84779        -0.223424     -0.822574      0.994625
Pb       3.93758     11.67909      4.31420        -1.238576     -0.068141      0.013827
Pb       3.97235     11.52946     17.31528        -0.604923      0.841297     -0.217350
Pb      15.24556     11.61970      4.33236         0.263422      0.047926     -0.630250
Pb       0.00244     11.62049     17.26269        -0.015328     -0.098128      0.373108
Pb       3.83326     11.62185      8.70902        -0.107042      0.023426     -0.360846
Pb      15.23425     11.52835      8.52594         0.329484     -0.288355      0.806885
Pb       3.84938     11.45365     13.04093        -0.299346      0.368688      0.071629
Pb      15.37199     11.74697     12.75563        -0.119035     -0.438829      1.218202
Pb       7.66485      3.79579      4.42949        -0.142793      0.563984     -0.481595
Pb       7.77636      3.89853     17.33958        -0.248773     -0.356840     -0.067809
Pb       7.82391     15.43931      4.22992        -0.219556     -0.315203      0.031374
Pb       7.60397      0.06826      0.13452         0.246740     -0.224881     -0.030043
Pb       7.82930      3.92579      8.53806        -0.535486     -0.402876      0.614180
Pb       7.72181      0.13252      8.59799        -0.166529     -0.003265      0.175321
Pb       7.78335      3.73193     12.94895        -0.461436      0.272872      0.193954
Pb       7.96744     15.45781     13.14299        -0.534517     -0.077627     -0.523178
Pb       7.71634      7.87994      4.30434        -0.161314     -0.784994      0.069875
Pb       7.81406      7.69369      0.00883        -0.439465     -0.253510     -0.088773
Pb       7.90256      7.63472      8.71976        -0.377201      0.146566      0.035286
Pb       7.67619      7.65355     12.99411        -0.248226     -0.044611     -0.088338
Pb       7.73205     11.63557      4.30624         0.320251      0.404008     -0.151084
Pb       7.63916     11.41321     17.32196         0.123126      0.348605     -0.127936
Pb       7.58799     11.72821      8.53070         0.257094     -0.216445      0.436073
Pb       7.75543     11.47073     12.91296         0.533792      0.060969      1.039107
Pb      11.37877      3.78118      4.48933         1.019293      0.140044     -0.535546
Pb      11.51420      3.98156      0.01992         0.337464     -0.548381     -0.274331
Pb      11.66407     15.34706      4.30824        -0.373148      0.061900      0.174125
Pb      11.55418      0.08745      0.15796        -0.023977      0.313250     -0.961955
Pb      11.73841      3.90876      8.81015        -0.609228     -0.198307     -0.381728
Pb      11.41267     15.37134      8.46695         0.308292      0.042056      0.867312
Pb      11.67627      3.88455     13.12651        -0.006596     -0.393405     -0.591108
Pb      11.53174     15.31872     13.18720         0.909626      0.395842     -0.654170
Pb      11.60149      7.65032      4.18711         0.074829      1.189513      0.921579
Pb      11.60296      7.64046     17.22785         0.350679      0.175850     -0.132738
Pb      11.58895      7.53484      8.78554         0.131626      0.920649      0.208352
Pb      11.38658      7.67363     13.07885         1.153261      0.240476     -0.225198
Pb      11.49869     11.59026      4.29364         0.156465     -0.175936     -0.136939
Pb      11.48649     11.67950     17.28381         0.295902     -0.211871     -0.519521
Pb      11.27208     11.50357      8.53142         1.230605     -0.343866      0.898789
Pb      11.61592     11.65641     12.76570         0.151968      0.120336      0.736493
Ti       1.98520      1.94779      2.23410        -0.448351     -1.052420     -1.244540
Ti       1.89287      2.01165     15.34817         0.855459     -1.731169     -2.026161
Ti       1.85745     13.46611      2.26247         0.224751      0.490202     -0.992603
Ti       1.96987     13.59379     15.34392         0.907807      0.284012     -0.299939
Ti      13.54723      1.98872      2.36646        -0.120474      0.558229     -0.049771
Ti      13.46216      1.90670     15.29097        -0.590906     -0.566933      1.998060
Ti      13.35643     13.50531      2.14889         1.142289     -1.132960      0.072227
Ti      13.60473     13.50013     15.32912        -0.926242      0.637963     -1.212076
Ti       1.90159      1.91385      6.58082        -0.108129     -0.736820      0.601399
Ti       1.84635     13.45137      6.66747        -0.010979      1.470095     -2.007629
Ti      13.49362      1.79716      6.64140        -0.084591      1.474979     -2.297747
Ti      13.44489     13.35262      6.64509        -0.300912      0.725102     -0.674804
Ti       1.91554      1.81700     10.81002         0.171398      0.523236      0.066952
Ti       1.92910     13.44733     10.96619        -0.066937      1.153845     -0.965050
Ti      13.59394      1.88712     11.02007        -1.021187     -0.426151     -0.302229
Ti      13.50516     13.56692     10.81381        -0.325337      0.820677      0.454052
Ti       1.96395      5.72750      2.33391        -0.886445      0.319139     -0.346941
Ti       1.90393      5.75524     15.30994         0.099429      0.908497     -1.336771
Ti      13.49081      5.74927      2.40570         0.579162     -0.284307     -1.969756
Ti      13.56758      5.72487     15.27056        -0.106545      0.036327     -1.033592
Ti       1.85653      5.81044      6.68418         0.479936     -0.001256     -1.093633
Ti      13.48991      5.81288      6.75376        -0.314430     -0.130989      0.865049
Ti       1.99615      5.76790     11.00285        -0.867862     -0.045890     -1.797818
Ti      13.54317      5.71588     11.10134        -0.088227      0.816503     -0.115102
Ti       1.77912      9.68697      2.30686        -0.315707      0.334839     -0.194173
Ti       1.88172      9.71375     15.38952        -0.046134     -0.002040     -1.159650
Ti      13.39245      9.65816      2.18802         0.429852      0.349041      0.249939
Ti      13.54203      9.66649     15.22548        -0.122105      0.503386     -1.423090
Ti       1.88117      9.71197      6.67187         0.085118     -0.311079     -0.028875
Ti      13.45908      9.47199      6.71813        -0.117351      0.144585     -0.975582
Ti       1.92120      9.69655     10.87655         0.217700     -0.993915     -0.918498
Ti      13.47668      9.59493     10.99955         0.009322     -0.265699     -1.082699
Ti       5.80722      1.90672      2.42861         0.834109     -0.222037     -0.969852
Ti       5.82416      1.81934     15.22785        -0.230355      1.245495     -0.277101
Ti       5.66084     13.47598      2.34543         0.932973      1.431350     -1.324241
Ti       5.89464     13.45327     15.31349        -2.128037     -0.013339     -0.730440
Ti       5.75186      1.93575      6.67405         0.238254      0.308614     -0.721044
Ti       5.77350     13.53076      6.47664        -0.465268      0.906550     -0.353344
Ti       5.80153      1.76788     11.04668        -0.040235      0.878207     -1.774512
Ti       5.85572     13.45784     11.10156        -0.141682      0.268259     -0.863784
Ti       5.74657      5.80853      2.40282         0.515226     -0.329909     -0.811887
Ti       5.77790      5.81032     15.30140        -0.050776     -0.951400     -1.602390
Ti       5.70697      5.90782      6.67760         0.210988     -1.402000     -1.223094
Ti       5.76443      5.68521     10.98839         0.521781      0.503463      0.146799
Ti       5.64972      9.63416      2.36506         0.546294     -0.309730     -0.981252
Ti       5.77466      9.44527     15.41704         0.006969      1.320056     -0.623454
Ti       5.76538      9.71289      6.55480        -0.646735     -0.272313      0.716713
Ti       5.86577      9.71609     11.03824        -0.781593     -2.059876     -1.337583
Ti       9.73016      1.93342      2.49105        -0.672615     -0.350526     -2.174846
Ti       9.55917      1.80791     15.43395         1.149705      0.587344     -0.487001
Ti       9.55261     13.41443      2.18062         0.708276      0.838600     -0.023129
Ti       9.63920     13.51149     15.36821         0.815286     -0.012019      0.267710
Ti       9.72410      1.99267      6.67722        -0.139977     -0.234738     -0.292897
Ti       9.56622     13.49722      6.58971         0.648338      0.111775     -1.897140
Ti       9.73040      1.94871     11.00082         0.579603     -0.331719     -1.761112
Ti       9.60343     13.58640     10.90347         0.799406      0.183050     -1.451551
Ti       9.57699      5.83903      2.31589         0.091421     -1.140436     -0.165106
Ti       9.60812      5.74586     15.23449        -0.121972     -0.286302     -0.287257
Ti       9.60503      5.85566      6.55624         0.737249     -0.244838      0.854831
Ti       9.68185      5.77687     11.09509         0.143810     -0.324159     -0.511346
Ti       9.54212      9.61527      2.31385         0.796798      0.563741     -0.112888
Ti       9.65356      9.60843     15.33929         0.090810      0.721932     -1.158720
Ti       9.58982      9.59790      6.57774         1.184499     -0.071418     -1.396344
Ti       9.72030      9.64934     10.99890        -0.122010     -0.358224     -0.972397
O       2.00674      1.94119      0.36778        -0.246967      0.311122      1.622621
O       1.88169      1.89617     13.41081         0.063557      0.161728      2.767202
O       2.09694     13.42356      0.44733        -0.795642      0.247052      1.832164
O       1.92090     13.67576     13.47680         0.061157     -0.545267      1.399153
O      13.45251      1.97072      0.51777         0.175835     -0.057755      1.717456
O      13.57534      1.95183     13.58141        -0.080413     -0.136357     -0.655083
O      13.36327     13.47018      0.33094         0.022714     -0.060948      1.161951
O      13.58914     13.74354     13.47775        -0.118142     -0.754710      1.736059
O       1.92724      1.96485      4.76375         0.060753     -0.283515      0.899839
O       1.65386     13.47046      4.83854         0.777313     -0.133092      1.509757
O      13.41635      1.82012      4.76102         0.126551      0.000770      1.800717
O      13.39954     13.45041      4.82665         0.209705     -0.177692      1.155002
O       1.84362      1.89884      8.98616         0.141903     -0.033445      1.374147
O       2.02755     13.48568      9.16204        -0.027962     -0.064596      0.738849
O      13.62864      1.84887      9.23060        -0.146093      0.336319     -0.107690
O      13.49673     13.58288      9.01785        -0.049341     -0.096349      0.566875
O       1.94767      5.73921      0.50761         0.024247     -0.045986      1.584457
O       1.86598      5.90675     13.48826         0.143913     -0.421856      1.499880
O      13.49567      5.69465      0.52337        -0.271072      0.216407      1.506157
O      13.57025      5.59621     13.40889        -0.073575      0.498316      2.556595
O       1.79681      5.70853      4.78393         0.166485      0.146965      1.933366
O      13.55369      6.00911      5.03995        -0.269916     -0.144133     -0.995857
O       2.07823      5.74380      9.13560        -0.322263     -0.041156      1.107310
O      13.46841      5.61566      9.28123         0.027854      0.281713      1.075946
O       1.79035      9.68264      0.52953         0.132653     -0.023777      0.527220
O       1.79362      9.67401     13.56642         0.411520     -0.020923      1.161083
O      13.48945      9.66727      0.42053        -0.246779     -0.163256      0.384031
O      13.71751      9.71587     13.36466        -0.604116      0.030372      1.674794
O       2.04166      9.76403      4.88825        -0.517112     -0.203498      0.964656
O      13.43883      9.49334      4.86944         0.103103     -0.037241      1.770800
O       1.94581      9.63710      9.06095        -0.131780      0.289959      1.294408
O      13.45034      9.66256      9.18093         0.261411      0.222648      1.391206
O       5.93867      1.79240      0.55569        -0.370531      0.446252      1.549575
O       5.74622      1.87730     13.45205         0.335618     -0.167802     -0.109691
O       5.67389     13.60405      0.48801         0.360970     -0.309717      1.398422
O       5.69725     13.49934     13.46760         0.339466     -0.209463      0.677292
O       5.78073      1.99453      4.76163        -0.165117     -0.132527      2.157439
O       5.78732     13.55759      4.68685         0.078305     -0.284034      1.169790
O       5.89855      1.77882      9.14423        -0.345335      0.085934      1.888484
O       5.87469     13.43095      9.26546        -0.086030     -0.116671      1.177744
O       5.71718      5.84400      0.59230         0.127841     -0.420105      1.102308
O       5.82597      5.81710     13.45054        -0.088697      0.182180      1.971594
O       5.70412      5.68959      4.84315         0.247774      0.308475      1.337326
O       5.72584      5.73329      9.19530        -0.150520      0.081672      0.859437
O       5.83007      9.62389      0.55589        -0.097997     -0.066920      1.017123
O       6.02918      9.51369     13.63440        -0.961093      0.142921      0.429420
O       5.51246      9.69174      4.81019         0.783512     -0.001436      0.564381
O       5.78652      9.76655      9.24367         0.369276     -0.123743      0.595278
O       9.59244      1.90067      0.56309         0.261322      0.121575      1.690048
O       9.60701      1.76099     13.58448        -0.348341     -0.116203      0.842075
O       9.65484     13.32585      0.34970         0.005596      0.349662      1.058320
O       9.75869     13.84676     13.54829        -0.686502     -0.925502      0.486723
O       9.86546      1.91022      4.81236        -0.675063      0.225746      1.585776
O       9.67969     13.38553      4.71855        -0.340489      0.155597      1.918061
O       9.71428      2.02465      9.08174        -0.492144     -0.481218      1.594062
O       9.48392     13.55793      9.04403         0.244828     -0.359977      1.199363
O       9.67035      5.67495      0.46544        -0.310998      0.493188      1.392785
O       9.56919      5.80117     13.41002         0.382827     -0.229806      1.335629
O       9.73430      5.91648      4.80850        -0.455720     -0.258645      0.169027
O       9.79445      5.88064      9.28957        -0.618972     -0.475748      0.700401
O       9.41847      9.61353      0.48980         0.476027      0.061721      0.929569
O       9.57312      9.66368     13.52916         0.196398     -0.257291      0.895450
O       9.68956      9.61486      4.65467        -0.399843     -0.033635      2.685816
O       9.69378      9.58294      9.17981        -0.411918      0.126751      1.050006
O       3.90668      1.94380      2.67123        -0.481704     -0.384075     -0.197949
O       3.94768      1.90480     15.64692        -0.792798      0.497049     -0.040267
O       3.88069     13.59503      2.80691        -1.065155     -0.184342     -0.371299
O       3.92367     13.45659     15.79443        -0.806267      0.346268     -0.864018
O       0.00593      1.84295      2.61936        -0.823777      0.371837     -0.270750
O       0.00603      1.85218     15.76086        -0.264434      0.380682     -0.397006
O      15.35715     13.44295      2.57500        -0.094828      0.146036     -0.243110
O       0.06792     13.59269     15.81201        -0.654671     -0.087978     -0.447795
O       3.83281      1.78611      6.92502         0.521759      0.415169     -0.072237
O       3.87586     13.51372      6.96771         0.288143      0.272293     -0.140241
O      15.39485      1.93559      6.83565         0.106533      0.187869      0.327930
O      15.39736     13.45383      6.97130        -0.687586     -0.052193      0.343297
O       3.83472      1.91052     11.26279         0.413473     -0.247224     -0.284950
O       3.79451     13.35344     11.48670         0.798127      0.031128     -0.544458
O       0.00977      1.96573     11.40509         0.341322     -0.023772     -0.609519
O      15.43707     13.55624     11.21070        -0.093512      0.068777     -0.227606
O       3.84338      5.81907      2.83732        -0.860420     -0.580363     -0.639585
O       3.83243      5.72209     15.67139         0.359378      0.291729     -0.040166
O      15.37252      5.80548      2.82420         0.625873     -0.270748     -0.596344
O      15.43831      5.64689     15.71289        -0.520150      0.436875     -0.240823
O       3.83619      5.81447      6.95421        -0.305567     -0.132391      0.145429
O      15.41310      5.67132      7.20277         0.668382      0.299477     -0.599662
O       3.79231      5.81254     11.51286         1.651846     -0.540151     -0.653403
O       0.05318      5.86552     11.36983        -0.938438     -0.376709     -0.395054
O       3.77273      9.63695      2.70495         0.321080      0.345197     -0.490670
O       3.82700      9.59718     15.77156         0.030085      0.167190     -0.376973
O      15.33528      9.69811      2.68461         0.806087      0.004496     -0.098821
O      15.37563      9.67442     15.79805         0.722123     -0.454979     -0.329519
O       3.83336      9.66145      7.15960         0.811637      0.235210     -0.726676
O      15.38755      9.70557      7.05831         0.894977      0.050533     -0.458238
O       3.83373      9.68331     11.30417         0.385962      0.150633      0.318019
O       0.02261      9.54502     11.30368        -0.385122      0.659206     -0.886841
O       7.78951      1.98224      2.90278        -0.198603     -0.782395     -0.380156
O       7.66276      1.74088     15.81609         0.948491      0.579716     -0.552860
O       7.74880     13.57754      2.60961        -0.507461     -0.299310      0.046751
O       7.67703     13.50672     15.58246         1.106721      0.265406      0.155121
O       7.71619      2.03797      7.06304         0.505123     -0.261386     -0.690352
O       7.69623     13.39273      6.82952        -0.448924      0.264117      0.219664
O       7.69807      1.92421     11.48639        -0.185757     -0.314651     -0.581118
O       7.82032     13.46994     11.41943        -1.548318     -0.416615      0.053207
O       7.67243      5.79773      2.75804         0.358615     -0.006334     -0.212747
O       7.71269      5.84385     15.65544         0.066689     -0.051844      0.099045
O       7.67396      5.73429      7.04852         0.659852      0.713085     -0.247288
O       7.77200      5.87561     11.30095        -0.716547     -0.632210     -0.183989
O       7.66040      9.75662      2.90565        -0.626569     -0.849715     -0.899574
O       7.69669      9.52212     15.81409        -0.056168     -0.025971     -0.149305
O       7.73956      9.56186      6.86011        -0.856095      0.378999     -0.083635
O       7.78251      9.59319     11.46536        -0.200436      0.102919     -0.763863
O      11.61513      1.97145      2.82926        -0.068864     -0.053215     -0.798070
O      11.52952      1.85863     15.68895         0.335816     -0.035429      0.016620
O      11.53807     13.31470      2.63048        -0.269579      0.794346     -0.542140
O      11.56070     13.47606     15.57026         0.120392     -0.233800      0.249601
O      11.55769      1.88076      7.13030        -0.356926      0.219532     -0.614700
O      11.47869     13.43209      6.96837         0.609180      0.326251      0.011576
O      11.56215      1.91405     11.37490         0.096524      0.150259      0.017711
O      11.52971     13.61993     11.24605         0.584474     -0.270590      0.140340
O      11.50984      5.94882      2.70005        -0.031569     -1.093115     -0.632807
O      11.53760      5.71179     15.67902         0.430412      0.087754     -0.372662
O      11.53299      5.89134      7.19214         0.428131     -0.513933     -0.948093
O      11.63688      5.73563     11.58175        -0.390622     -0.454407     -0.432023
O      11.49623      9.54417      2.56325        -0.644290      0.282947     -0.257934
O      11.58023      9.61897     15.60218        -0.234809      0.306358      0.158443
O      11.55837      9.53541      7.07385        -0.491705      0.144742     -0.407805
O      11.58423      9.67962     11.40902        -0.092244      0.322100      0.155462
O       1.89025      3.72093      2.73676        -0.074569      1.791005     -0.347391
O       1.96751      3.89101     15.61829        -0.274297     -0.928831      0.019772
O       1.82767     15.43763      2.65269         0.642541      0.234306      0.035785
O       1.99868      0.03103     15.73045        -0.151465     -0.162137     -0.269288
O      13.49867      3.90535      2.88425        -0.205377     -0.640329     -0.691374
O      13.40769      3.81768     15.79976         0.572885      0.191347     -0.711827
O      13.41835     15.34679      2.69155        -0.107358      0.760107     -0.753243
O      13.49483     15.41811     15.84275         0.057228      0.593591     -0.455028
O       1.92658      3.86029      6.96815         0.078093     -0.503298     -0.224444
O       1.82659     15.43769      6.98618         0.285479      0.007393     -0.018891
O      13.36219      3.83478      7.12836         0.484575     -0.142830     -0.492881
O      13.42339      0.01380      6.96100         0.167461     -1.409969      0.195487
O       1.97089      3.84755     11.36216        -0.327615     -0.156596     -0.537813
O       1.92434     15.44976     11.16496        -0.066859     -0.289779      0.093167
O      13.53216      3.82733     11.49223        -0.006849      0.013997     -0.529080
O      13.51469      0.04336     11.35276         0.296319     -0.728969     -0.292023
O       1.86090      7.71109      2.62576         0.199853     -0.036998     -0.031021
O       1.88931      7.74087     15.84559        -0.486440     -0.570553     -0.597609
O      13.49255      7.75437      2.69135         0.123554     -0.564256     -0.240988
O      13.47256      7.74028     15.60480         0.263174     -1.330521      0.052223
O       1.88725      7.69720      7.08812        -0.214433      0.294716     -0.481733
O      13.65828      7.65252      7.37968        -0.424109      0.246851     -1.000319
O       1.97410      7.66791     11.20683        -0.037410      1.364142      0.331286
O      13.30023      7.75539     11.43338         1.012392     -0.626944     -0.481247
O       1.89687     11.63851      2.72547         0.211638     -0.832709     -0.173356
O       1.86447     11.60910     15.76653         0.331227     -0.378162     -0.557990
O      13.37211     11.55775      2.69161         0.392873     -0.211103     -0.313197
O      13.59855     11.59220     15.55137        -0.217853      0.235407      0.120511
O       1.98519     11.64759      7.12619        -0.345978     -1.261078     -0.313921
O      13.41654     11.51887      6.95807         0.107855      0.004990      0.041335
O       1.80823     11.51606     11.32788         0.415291      0.703732     -0.169994
O      13.52261     11.67759     11.28893        -0.222676     -0.077956     -0.256081
O       5.83050      3.81488      2.77794        -0.227841      0.554015     -0.199700
O       5.91306      3.79762     15.73881        -0.009757      0.807286     -0.379333
O       5.87254     15.43966      2.75719        -0.168595      0.624865     -0.171956
O       5.78173      0.01807     15.62850        -0.067140     -1.438503      0.082149
O       5.73627      3.90684      7.12033        -0.161200     -1.116977     -0.587317
O       5.88934     15.45681      7.01330        -0.159039     -0.156136     -0.413791
O       5.70611      3.81829     11.42533         0.523334      0.121015     -0.635804
O       5.74172     15.31239     11.37094         0.129096      0.714517     -0.222748
O       5.70958      7.71418      2.85123         0.399084      0.768268     -0.466567
O       5.72254      7.63396     15.87107         0.078260     -0.036950     -0.523173
O       5.77759      7.73703      7.07630         0.184911      0.952960     -0.383934
O       5.76621      7.68410     11.42661         0.066008      0.429666     -0.522939
O       5.78684     11.60453      2.64537        -0.293457     -0.596337      0.135267
O       5.75793     11.56769     15.69155         0.451580     -0.736951      0.033036
O       5.78611     11.64504      6.91395        -0.067474     -1.142797     -0.041562
O       5.82610     11.50215     11.49290         0.082738      0.886780      0.085679
O       9.56192      3.83388      2.82092         0.802981      0.918340     -0.193823
O       9.55223      3.78592     15.64844        -0.080676      0.544558      0.000391
O       9.76513     15.38513      2.71089        -0.271042      0.404898     -0.385130
O       9.66579     15.41727     15.88902        -0.235859     -0.348613     -0.318991
O       9.69668      3.96231      6.98226         0.081819     -1.052985     -0.515073
O       9.59291     15.38760      6.89212        -0.070238      1.041969      0.028049
O       9.67206      3.78789     11.45259        -0.284643      0.691942     -0.057401
O       9.54987     15.45987     11.23014         0.026074      0.173244      0.255194
O       9.47149      7.70560      2.67354        -0.043199      0.287414     -0.487373
O       9.72115      7.65689     15.64773        -0.331611      0.083486      0.151760
O       9.62834      7.68485      7.15165        -0.351110      0.634589     -0.730481
O       9.84420      7.66318     11.37877        -0.713394      0.928344     -0.073792
O       9.53572     11.59009      2.67783         0.211467     -0.949131     -0.373373
O       9.52866     11.56422     15.64621         0.177917     -0.305135     -0.041272
O       9.63215     11.54117      6.99594        -0.510593     -0.874488     -0.555673
O       9.76261     11.55705     11.30057        -0.698855      0.468437     -0.057413
