  # total energy = -7838.86139487 
CRSYTAL
PRIMVEC
    15.6080000000000005    0.0000000000000000    0.0000000000000000
     0.0000000000000000   15.6080000000000005    0.0000000000000000
     0.0000000000000000    0.0000000000000000   16.6239999999999988
PRESSURE
2.84858 2.32408 -2.46145 0.022952 0.118904 0.071765
PRIMCOORD
320 1
Pb       4.24154      4.07307      4.30149        -1.412623      0.342155     -1.344004
Pb       4.04439      3.97013      0.10022        -0.560260     -0.485220      1.146520
Pb       4.23086      0.15260      4.41687        -0.912076      0.134278     -1.035165
Pb       3.73531     15.59320      0.39062         0.825582     -0.779268     -0.668222
Pb       0.37896      4.04730      4.31991        -0.098459     -0.364504     -1.207471
Pb       0.05872      3.85430      0.36031         0.684389      0.395494     -1.140802
Pb      15.29324     15.56885      4.46349         0.545265      0.225780     -1.758002
Pb       0.27720     15.55723      0.06593        -1.015862      0.151793      0.201476
Pb       3.91292      3.68698      8.24348         0.842060     -0.546093      0.811361
Pb       3.84806      0.01732      8.71458         0.476285      0.328380     -0.452317
Pb      15.38521      3.93632      8.14736         0.031952     -0.072624     -0.210833
Pb      15.01203     15.49681      7.86474         2.342006      0.646514      1.803609
Pb       3.85812      3.92412     12.35365         1.362493     -0.350236     -1.006341
Pb       3.69962      0.28825     12.47449         0.812689      0.235170     -0.619632
Pb       0.19560      3.73559     12.75127        -0.551298     -0.491799     -0.550191
Pb      15.33494     15.39094     12.07398         1.532629      2.020080      0.282754
Pb       3.76235      8.11729      4.24913         0.211976     -0.549006     -0.439866
Pb       3.76819      8.04562      0.13918        -0.007928     -0.370978     -0.046459
Pb       0.10297      7.73828      4.17433         0.736268     -0.087662      0.328048
Pb       0.18405      8.05843      0.04385        -0.316332     -0.219113     -0.570846
Pb       4.02564      7.84173      8.90800         0.444666      0.148898     -0.481189
Pb       0.06830      7.63685      8.67081        -0.533844      1.050556     -1.284299
Pb       3.74093      7.46730     12.95707         0.802335      1.043254     -1.214055
Pb       0.16411      7.36016     12.82730         0.100993      1.095392     -0.455767
Pb       3.60425     12.06680      4.79232         1.289529     -0.751197     -1.671219
Pb       3.41039     11.94886      0.27546         0.524068      0.743941     -0.413669
Pb       0.00276     11.64789      4.61338         0.289128     -0.406886     -1.107576
Pb      15.50688     11.88374     16.45906         0.075901     -0.588509     -0.059152
Pb       3.63054     11.60186      8.63934         0.673031     -0.115768     -0.328325
Pb      15.35087     11.35036      8.16286         0.347723     -0.185729      0.081096
Pb       3.96705     11.87224     12.71062        -0.043561     -0.367110      0.011644
Pb      15.24317     11.90806     12.42020         0.241233     -1.796444      0.140296
Pb       7.78618      4.08955      3.90449         0.607421     -0.582497     -0.494419
Pb       7.80380      3.78537     16.50074        -0.592302     -0.410333      0.547518
Pb       8.16067     15.56432      4.09319        -0.066583      2.215046      0.001135
Pb       7.61938     15.55479     16.58879        -0.170579      0.767176      0.789234
Pb       7.64030      4.02543      8.35365        -0.240253     -1.161679      0.644948
Pb       7.70083      0.01212      8.34300         0.030944      1.791722      0.398283
Pb       7.99858      3.94666     12.56690        -0.477785     -1.074445     -0.442628
Pb       7.83744     15.58932     12.96248         0.873121      1.019671     -1.694668
Pb       7.63611      7.77991      4.03809        -0.555584     -0.028827      0.010675
Pb       7.57208      7.90235      0.11123         0.046035      0.447759     -1.118358
Pb       7.83611      7.89435      8.33507        -0.517228      0.193007      0.999695
Pb       7.54842      7.77630     12.81296         1.061896     -0.280796     -0.614281
Pb       7.60080     11.94517      4.15380         0.273049     -0.958053      0.081889
Pb       7.77326     11.65890      0.01996        -0.212860     -0.131058     -0.317002
Pb       7.60882     11.63945      8.32773        -0.453628     -0.028103     -0.176923
Pb       8.13973     11.75298     12.91956         0.350539     -0.437036     -0.448216
Pb      11.79997      3.76753      3.95503        -0.264857      0.579129      0.760092
Pb      12.04144      3.78452     16.60652         0.221113      0.682593      0.169799
Pb      11.96392     15.13337      4.38144        -1.308199      2.422106     -2.138671
Pb      12.40460     15.53703      0.47624        -1.656631      0.169153     -0.698256
Pb      11.62807      4.15276      8.57308        -0.256645      0.095928     -0.456743
Pb      11.59739      0.28989      8.10656        -1.469872      0.276326     -0.867197
Pb      11.73962      3.57336     12.72351        -0.416015      0.229586     -0.286347
Pb      11.61452     15.18004     12.04437        -1.046342      1.250581      1.518553
Pb      11.32291      7.48231      4.26164        -0.233043     -0.077588     -0.171647
Pb      12.18843      7.76176      0.11475        -0.979496      0.873579     -0.669320
Pb      11.99632      7.53260      8.89215        -2.017627      0.713709     -1.782664
Pb      11.52224      7.60157     12.72397        -0.274140      0.536426     -0.208551
Pb      11.49951     11.50905      4.18406        -0.183240     -0.155750     -0.781868
Pb      11.84645     11.54153     16.51079         0.261533      0.288424      0.085132
Pb      11.26181     11.34245      8.27184         0.719839      0.021975     -0.143334
Pb      11.45969     11.48270     12.16308        -0.448502     -0.426771      1.327684
Ti       2.09072      1.90565      2.02597        -0.362427      2.985781      2.497735
Ti       1.95539      1.82013     14.62399         0.121164      1.654016      0.329055
Ti       1.71685     13.93255      2.57096         0.852565     -0.560255     -2.007487
Ti       1.92698     13.78951     14.10277         1.785877     -0.738145      1.323065
Ti      13.91276      2.07218      2.20599         0.686453      0.135298      0.823535
Ti      13.69519      1.58935     14.33454         0.900094      1.641103     -0.873276
Ti      13.64474     13.33157      2.11686        -1.215712      0.647666      2.211029
Ti      13.61954     13.65219     14.50530        -1.214023     -0.826736      1.886831
Ti       1.86795      1.95896      6.25283         1.294677      0.183383     -0.964851
Ti       1.88958     13.80138      6.37625         0.454530      0.080267      1.759998
Ti      13.62927      2.09351      6.15537        -2.311649      2.031517     -0.993039
Ti      13.57725     13.40414      6.26091        -0.028115     -1.587719     -0.948771
Ti       1.81396      1.89297     10.27166         1.324538      0.832147      0.018938
Ti       1.75858     13.65362     10.26645         0.617188     -0.815798     -0.943829
Ti      13.56211      1.90291     10.24192         1.293070      1.308802      0.794805
Ti      13.50306     13.57780     10.11255        -0.020675     -0.811866     -1.036057
Ti       2.02648      5.86883      1.95450         0.362577     -1.376817      0.505338
Ti       2.07860      5.52048     14.59300        -1.390750      2.691908      1.782907
Ti      13.61958      5.85686      1.96167         0.250944     -1.704628      1.046063
Ti      13.67239      5.66638     14.40216         0.238042     -0.121921     -0.293799
Ti       2.07629      5.88995      6.37250         0.706164      0.691346     -0.981874
Ti      13.35063      5.94238      6.19144        -0.199657     -3.535564     -1.376657
Ti       1.98441      5.67375     10.02152         2.114479     -0.986080      2.853612
Ti      13.89935      5.75122     10.39597        -1.797018     -0.593628      1.854332
Ti       1.80800      9.97522      2.09777         0.202253     -0.231211      1.214334
Ti       1.90969      9.92896     14.35642         0.159950      0.132595     -0.840673
Ti      13.66708      9.68252      2.27273        -1.254869     -0.019309     -1.838598
Ti      13.73503      9.63083     14.29904        -0.596131     -0.140480      0.373194
Ti       1.99742      9.73949      6.50698         0.041806     -0.940057     -0.849083
Ti      13.40094      9.41983      6.01531         0.551085      2.021398      1.066672
Ti       1.72373      9.75286     10.47815         1.195941     -0.051710      1.716516
Ti      13.53804      9.66818     10.29957         0.393566     -0.152760      1.037319
Ti       6.05809      1.93329      2.07464         0.257030      2.056437     -0.077122
Ti       5.80118      1.89079     14.46430         0.150973      0.824133      0.168032
Ti       5.95038     13.71223      2.11377        -3.508048      0.705394     -0.952971
Ti       6.00708     13.67833     14.47809        -2.683943     -0.716428      1.488895
Ti       5.88631      2.19923      6.04800         2.544589     -0.168987      0.825713
Ti       6.02829     13.92790      6.33080        -0.859569     -0.770571      0.312872
Ti       5.90853      1.78108     10.49609         0.614915      1.715788     -0.583957
Ti       5.85067     13.46388     10.36094         1.997820      2.317381      0.290672
Ti       5.84517      6.00492      1.89664        -1.155217     -1.316206      0.817407
Ti       5.86737      5.72901     14.70288         0.645713     -0.303808     -1.826012
Ti       5.77766      6.07847      6.34759        -1.388913      1.158127     -0.325855
Ti       5.97303      5.85001     10.42459        -0.189205     -0.821350      0.951675
Ti       5.66785      9.97242      1.81163         0.581856     -1.509613     -0.023897
Ti       5.87635      9.82690     14.41599        -0.951517      0.030147      1.189367
Ti       5.74427      9.99697      6.02048        -0.084182     -1.904323      1.873055
Ti       5.91225      9.86079     10.53920         0.458799     -1.978477     -0.497776
Ti       9.96762      2.05254      2.03543        -2.508400     -1.490516      2.217711
Ti       9.83054      1.86143     14.90023        -0.397148      0.813098     -1.179180
Ti       9.78308     13.57783      2.10221         1.223156      0.494419     -0.653647
Ti       9.83862     13.80837     14.95057         1.120118     -1.748206     -0.637643
Ti       9.69512      2.35473      6.23141        -0.063884     -2.798391     -1.831162
Ti       9.79189     13.76895      6.10728        -0.657912      0.947702      0.427765
Ti       9.80940      1.87713     10.27209        -4.433522      0.876308      2.027996
Ti       9.66462     13.68977      9.97122        -1.005342     -0.868099     -0.733175
Ti       9.63568      5.92923      1.67286         1.777046     -1.539428     -0.596227
Ti       9.75419      5.77341     14.56193         0.237329      1.463495     -0.879557
Ti       9.34615      6.02539      6.26228         2.560744      0.047037     -0.866027
Ti       9.73478      5.78133     10.39638        -0.780405      0.902138      0.853717
Ti       9.69120      9.63619      1.93068         0.795342      1.404395      1.094784
Ti       9.98456      9.79809     14.81953        -0.966483     -1.279293     -3.510677
Ti       9.37561      9.88033      6.04656         1.981122     -3.120336     -0.768116
Ti       9.66217      9.62773     10.24337        -0.794159     -0.872884      1.968631
O       1.93422      1.85903     16.60256        -0.118518     -0.857950      0.457318
O       1.83705      2.03389     12.49376         0.475683     -0.506438      0.807864
O       1.81488     13.99673      0.60556         1.539468     -1.659922     -1.461662
O       2.24165     13.83973     12.36464        -1.095394     -0.646562     -0.882236
O      13.80519      1.95326      0.35496        -0.975208      1.141991     -0.307754
O      13.82627      1.79331     12.39884        -0.449527     -1.072545      0.073774
O      13.85194     13.59819      0.35845        -0.944344     -0.121208     -3.930822
O      13.76285     13.88013     12.75442        -1.186440     -0.502486     -1.387940
O       1.98426      2.07246      4.04865        -0.394228     -0.434344      2.379864
O       1.75213     13.92624      4.47076        -0.002500     -0.614441     -0.273792
O      13.72592      2.14017      4.35924        -0.095565     -0.756921     -0.790007
O      13.69268     13.56108      4.09483        -0.243579      0.130325      2.294323
O       2.15110      2.03742      8.35875        -0.601453     -0.496295      0.096924
O       1.99818     13.23550      8.36222        -0.687872      1.389559      0.935196
O      13.70262      1.91263      8.26221        -0.553976     -0.404625      1.271947
O      13.60474     13.45727      8.30896        -0.596642     -0.105596     -1.788041
O       1.98950      5.55489      0.06550        -0.180546      0.749676     -0.697004
O       1.91319      5.71653     12.66443         0.428357     -0.423213      0.180282
O      13.74051      5.45953      0.12302        -0.779139      0.278969     -1.358716
O      13.72475      5.77287     12.24908         0.542297      0.075957      1.634559
O       2.24881      5.70890      4.02482        -0.263908      0.746440      0.678964
O      13.12025      5.91425      4.26576         1.547368      0.897756      0.234001
O       1.71115      5.78096      8.27530         0.842243     -0.396508     -0.591629
O      13.73425      5.88974      8.36298         0.295911     -0.973815      0.156405
O       1.86247     10.09166      0.04138         0.637954     -0.923742      0.360061
O       1.68105      9.87232     12.41039         0.236054     -0.332617      0.900866
O      13.68725      9.64425     16.55330        -0.226280     -0.018889     -0.251555
O      13.87512      9.69962     12.45634        -0.106575      0.585005     -0.986544
O       1.79718      9.52305      4.20644        -0.075784      0.140701     -0.983682
O      13.77931      9.75853      4.11437         0.050243     -1.463043      1.984200
O       1.83071      9.91210      8.30177         0.644636      0.221030      1.696601
O      13.36811      9.77828      8.39206         0.302354      0.611553     -0.269487
O       5.97153      2.11353     16.46957         0.218282     -0.575172      1.507580
O       5.74458      1.89708     12.51254         0.646790     -0.436737      1.567108
O       5.72799     14.10214      0.35118         0.229329     -1.145066      0.544258
O       6.29512     13.43600     12.78232        -0.812874      0.783739     -1.758876
O       5.87655      2.21886      4.04775        -0.256688     -0.585881      1.688471
O       5.80425     13.52388      4.56062         0.423995      0.841779     -1.012660
O       5.85046      2.04026      8.49052        -0.789959     -0.328521     -0.199759
O       5.96311     13.72527      8.52438        -0.064647     -0.415668     -1.600866
O       6.01486      5.73986      0.05844         0.036135      0.529628     -1.535452
O       5.51941      5.84938     12.55207         0.622710      0.590833      0.325009
O       5.76502      5.96378      4.35573         0.376815      0.028052     -0.080100
O       6.24025      6.08784      8.44197        -1.141385     -0.692938      0.239921
O       5.64157      9.66217     16.56932        -0.014065      0.396696      0.924189
O       5.77824      9.90396     12.55217         0.785234     -0.230526      0.500885
O       6.09477      9.92211      4.31324        -1.084958      0.234654     -1.677742
O       6.12617      9.91625      8.64515        -1.075098     -0.327090      0.181529
O       9.68717      2.02656      0.19960         0.823678      0.153186     -2.346269
O       9.48086      1.87277     12.29204         1.235065     -0.615374     -0.966111
O       9.93610     13.48056      0.27296        -2.022075      0.132854     -1.782064
O       9.82034     13.81543     13.04623        -0.362276     -0.048660     -0.882152
O       9.79608      2.08514      4.32837        -1.451380      0.503473     -0.916527
O       9.65697     13.77597      4.04853         0.294529     -1.190349      1.574847
O       9.70771      1.73398      8.05418         1.208465      0.271879      1.700430
O       9.87955     13.56328      8.11144         0.180773      0.016893      0.676502
O       9.57030      6.05126     16.43778         0.042137     -1.237163      0.717617
O       9.65037      5.83298     12.62937         0.837306     -0.376126     -0.753643
O       9.38458      5.96504      4.29838         0.715963      0.417881      0.651994
O       9.74668      5.87765      8.56200        -0.139090     -0.462681     -1.311463
O      10.07293      9.57415     16.61917        -0.187951      1.242690      1.144087
O       9.68017     10.00736     12.58371         0.681085     -0.627634     -0.553348
O       9.69901      9.77424      4.07970        -0.607123     -1.130801      0.143403
O       9.51555      9.76221      8.35967         0.975987      0.843202     -1.706989
O       3.91334      1.76517      2.10907         1.325969     -1.089755     -0.632991
O       3.85579      1.90582     14.68464         0.012535     -0.097427     -0.716331
O       3.80517     13.99868      2.60659        -0.187407     -0.153065     -0.810321
O       4.08324     13.74274     14.56256        -1.062772     -0.742640     -0.352928
O       0.17191      2.42701      2.20751        -1.460675     -0.756761     -0.106266
O      15.41692      1.91660     14.75666         1.742356      0.030581     -0.704806
O      15.35308     13.72995      2.10487         3.724989     -0.281984      1.931008
O       0.18060     13.61402     14.47224        -1.408129      0.072282      0.469542
O       3.77932      2.07181      6.08816         0.650059      0.222820      0.558032
O       3.77234     13.72159      6.36246         0.496982      0.104492     -0.070616
O      15.47608      1.69302      6.12636         1.153097      0.256846      1.243576
O      15.50663     13.44801      6.22554        -1.026061      1.523538      0.647633
O       3.99234      1.83804     10.66352        -1.321664      0.278872     -1.046827
O       4.10710     13.61369     10.32138        -2.164744     -0.465040      0.489930
O       0.08403      1.74752     10.33540        -2.427513      0.066592     -0.249349
O      15.56881     13.94361     10.14206         0.851928     -2.081031      0.885481
O       3.96693      5.96534      1.66147         0.419412     -0.179504      0.440097
O       3.93156      5.85325     14.60368        -0.612776     -0.540127      0.892835
O       0.02630      5.69728      1.92697         0.561437      0.605022      1.068046
O      15.50810      5.78881     14.59891        -0.064040     -0.552424     -0.353878
O       4.07862      5.38336      6.67153        -1.663556      0.656585     -0.986795
O       0.32863      6.01920      5.97018        -1.291302      0.677047     -0.050228
O       4.01734      5.60035     10.12059        -1.717617      1.027416      0.023469
O       0.16793      5.80714     10.22927        -1.494254      0.001300      0.887810
O       3.91882      9.85913      2.31406        -2.594645     -0.252565     -0.611027
O       3.86776      9.89545     14.42759        -0.692949     -0.447540     -0.070225
O      15.47032      9.75737      1.78675         2.011953     -0.206160      1.129222
O       0.01209      9.69116     14.49429         1.571773      0.141535      0.840979
O       3.86021     10.06978      6.35823         0.479626      0.102058     -0.701528
O       0.24997      9.34514      6.35123        -2.728578      0.227873     -0.649278
O       3.75293      9.71901     10.38645         0.842045      0.910038     -0.257190
O      15.41623      9.67769     10.03728         1.519664      1.288055      0.530132
O       7.87605      2.11265      2.12265        -0.793613      0.487228     -0.081923
O       7.79857      1.97514     14.41429         0.904673     -0.469228      0.920215
O       7.67334     13.32124      2.20743         1.667190      0.469646     -0.175606
O       7.82437     13.41913     15.06990         1.196622      1.157820     -0.138025
O       7.73028      1.95275      6.26411        -0.564353     -0.223758     -0.268380
O       7.89819     13.80503      6.33443        -1.009570     -0.211596     -0.236058
O       7.91789      1.92215     10.11379        -0.442624     -0.510938      0.240362
O       7.85638     13.86494     10.24991         1.652494     -1.077974      0.147593
O       7.85186      5.93090      2.06969        -2.158362      0.963803      0.305435
O       7.73304      5.88789     14.49035        -0.041472     -0.098296      0.039232
O       7.61161      6.48805      6.34982         1.359047     -0.693676     -0.416114
O       7.85968      6.00444     10.57582         0.168878     -0.817001      0.281724
O       7.57415      9.92289      1.91927         2.869361     -0.912806     -0.005844
O       8.01006      9.56880     14.80404        -1.136978      1.015143     -0.157100
O       7.66309      9.51128      6.24500         0.278072      0.335539      0.358141
O       7.90330      9.50553     10.44361        -2.113362      0.648674      0.977720
O      11.70746      1.81363      2.38812         0.194093      1.548636     -1.117008
O      11.77033      1.65852     14.35488        -1.689773      0.815902      0.918481
O      11.62991     13.64569      1.87248         1.359717      0.722853      2.080629
O      11.72405     13.63397     14.86290         1.960905      0.533234     -0.060141
O      11.60353      2.18157      6.07704         1.680397     -0.149427      1.612120
O      11.66814     13.40591      5.87441         0.806733     -0.531648      1.328093
O      11.68018      2.03722     10.39360         2.201923     -1.074273     -0.559485
O      11.65166     13.69304     10.36564        -0.202143     -0.266854     -0.004869
O      11.67329      5.53263      1.80382        -0.808614      1.199753      0.003692
O      11.72995      5.50283     14.55705        -0.395675      0.390451      0.117234
O      11.62122      5.73022      6.27359        -1.086830     -0.031774      0.983743
O      11.87892      5.82780     10.40624        -0.914475     -0.695823     -0.305945
O      11.85452      9.31655      1.99380        -2.252134      1.270481      0.500581
O      11.90626      9.85533     14.27386        -1.762001     -0.609176      0.729200
O      11.68775      9.84897      5.98670         0.054839     -0.557830      0.380056
O      11.63491      9.56963     10.46158         1.513175      0.680854      0.218560
O       2.39250      3.81825      2.07219        -0.591583      0.751236     -0.706233
O       1.86292      3.77670     14.77896        -0.147570     -0.729668     -1.075052
O       1.49428      0.11986      2.29237         0.169672     -0.097243      0.369493
O       1.97826      0.04701     14.36326        -0.387998     -1.344078      0.789606
O      13.65299      4.01806      2.54991        -0.060004     -1.126991     -1.099240
O      13.65409      3.76584     14.15283        -0.400238      0.309633      1.077283
O      13.68504      0.23945      2.33065         0.727881     -1.104597      0.561563
O      13.83866     15.48070     15.00912        -0.444196     -0.502528     -0.708019
O       1.59413      3.80206      6.39597         0.595382     -0.253103      0.075433
O       1.81204     15.58517      6.65281        -0.219360      0.257451     -0.210921
O      13.73302      3.99395      6.30448         0.845693     -0.456172      0.659046
O      13.41943     15.54288      6.21708         0.099463     -0.863296      0.145748
O       1.92243      3.85229     10.46643         0.210965      0.767346     -0.542237
O       2.05349     15.58915     10.34518         0.500439     -0.852804     -0.106038
O      13.71385      3.77305     10.36888         0.326787     -0.656844     -0.596640
O      13.78208     15.36495     10.39157        -1.921262      3.239326      0.101707
O       2.07204      7.77711      2.00217        -0.896294      1.010167     -0.384385
O       1.78454      7.57355     14.61334         0.728343      1.536618      0.164044
O      13.57245      7.68840      2.00354         1.578425     -0.216269      0.505274
O      13.45308      7.69586     14.43263         0.691040     -1.003899      0.027595
O       2.57723      7.63621      6.57095        -0.996731      0.737211     -0.891058
O      13.54126      7.68168      6.52520         0.219987      2.865187     -0.687044
O       1.85132      7.86210     10.47947         0.152614     -0.841658     -0.958458
O      13.78525      7.76600     10.32345         0.063310     -0.030409      0.130180
O       1.78631     11.79856      2.26465         0.339062     -0.553426      0.165649
O       2.07290     11.84069     14.43567        -0.300595     -0.659487      0.130131
O      13.36113     11.56854      2.30329         0.389211     -0.959545     -0.723389
O      13.75973     11.65786     14.55725         0.602966      1.836351      0.220559
O       1.77819     11.68645      6.20747        -0.165473     -0.238049     -0.107438
O      13.81638     11.54684      6.11837        -0.546938     -0.236777      0.732421
O       1.91150     11.76106     10.63305        -0.371115      0.329252     -0.729053
O      13.51299     11.84813     10.69703         1.068605     -1.492686     -0.376744
O       5.84221      4.00940      2.07551        -0.243759      0.151629      0.217855
O       5.91323      3.87858     14.45987        -0.302662      0.896784      0.561452
O       6.25436      0.16351      2.26988        -0.949985     -2.459394      0.417887
O       6.01047     15.58647     14.72066         0.564322      0.099229     -0.518404
O       6.17485      4.04125      6.44240        -0.561327     -0.760829     -0.697066
O       5.83034      0.22989      6.22025        -0.218994     -1.950568      0.360996
O       5.96507      3.87810     10.74179         0.151597      0.775023     -0.828214
O       5.89001     15.57387     10.61789         0.078526     -0.969502     -0.266938
O       5.66608      7.85993      2.05991         1.050161      0.143973      0.014002
O       5.80156      7.90390     14.59661         0.031443     -0.913898     -0.216999
O       5.44550      7.96906      6.26307         0.181193     -0.608282      0.240860
O       5.82992      7.77779     10.59011        -0.561887      0.777801     -0.218597
O       5.63454     11.74432      1.84261         0.051239      2.629622      0.218050
O       6.02403     11.67878     14.77429        -0.193938     -0.325555      0.098621
O       5.91291     11.77419      6.42912         0.691903      0.864368      0.329293
O       6.30426     11.68273     10.70574        -0.733120      0.323205     -0.660765
O       9.47069      4.10267      2.04128         1.269382     -1.737941      0.021506
O       9.68041      3.71931     14.38966         0.727033      0.192961      1.195877
O       9.50893      0.08522      2.28147         0.658609     -0.352623     -1.024917
O       9.53964      0.01908     15.00472         0.107268      0.155777     -0.370211
O       9.31062      4.07215      6.39483         0.153528      1.738629      0.270021
O       9.93885     15.58535      6.08599         0.270154     -1.527661      0.393677
O       9.73700      3.83676     10.33293         0.614458      0.591393     -0.179090
O       9.78466     15.53629     10.11141         1.248004     -0.165917      0.323840
O       9.57664      7.82074      1.63741         0.138871      0.875564      2.134871
O       9.87162      7.73813     14.38626         0.760214     -0.221201      0.185145
O       9.92446      7.76054      6.22386        -0.391328      1.174778      0.182823
O       9.78792      7.76874     10.31659         0.923589     -0.681883      0.554115
O       9.93293     11.62579      2.26578        -0.525322     -0.673388     -0.729895
O      10.07963     11.63295     14.65745        -1.298157      0.468380      1.114012
O       9.55721     11.62222      5.98967         0.160179      1.662822      0.715578
O       9.95627     11.56596     10.30873        -0.428991      2.272367     -0.324252
