  # total energy = -7841.93605586 
CRSYTAL
PRIMVEC
    15.6080000000000005    0.0000000000000000    0.0000000000000000
     0.0000000000000000   15.6080000000000005    0.0000000000000000
     0.0000000000000000    0.0000000000000000   16.6239999999999988
PRESSURE
2.38171 3.03489 -0.887351 0.336404 0.11794 0.29518
PRIMCOORD
320 1
Pb       3.46628      3.52647      4.21493         0.793226     -0.248739      1.066427
Pb       3.71670      3.85143     16.60536         0.574107      0.014611     -0.196230
Pb       3.64754     15.41125      3.91865         0.128083      0.494676      0.590946
Pb       3.98874      0.03409     16.58881        -0.237294      0.202734      0.195831
Pb      15.29737      3.86772      4.08888         0.576029      1.010923     -0.829035
Pb       0.06969      3.98146     16.32674        -0.687863      0.164156      1.739586
Pb       0.09046     15.54749      4.02181         0.123272      0.006535     -0.403716
Pb      15.34538     15.58860      0.13022         0.542382      0.876026      1.185802
Pb       3.90501      4.11507      8.26413        -0.479926     -1.370548     -1.139402
Pb       4.03667     15.57615      8.09501        -0.474609      0.250334      0.795616
Pb       0.25518      3.70735      8.66236         0.000696      0.480099     -0.006970
Pb       0.30809     15.58915      8.71396        -0.785267      0.040428      0.593666
Pb       3.90947      3.92287     12.72351         0.404382      0.057859     -0.360881
Pb       3.84734     15.43417     12.77833         0.454422     -0.068408     -1.269645
Pb      15.54160      4.16162     12.41960        -0.592078      0.016512     -1.328903
Pb      15.44072     15.52500     13.03456         1.144300      1.378126     -2.350942
Pb       3.90011      7.31491      4.14398         0.027805      2.010533      0.348312
Pb       3.90200      7.55057     16.54812        -0.004231     -0.101876      0.364690
Pb      15.51300      7.49420      4.55651         0.072946      1.514166     -1.313195
Pb      15.40016      7.73190      0.00743         0.848198      0.760074      0.971235
Pb       3.91014      7.64373      8.08783        -0.857342      0.046609     -0.093948
Pb      15.53051      7.92177      8.32938         0.389128     -0.153305     -0.173108
Pb       4.04943      7.80212     12.14958        -0.847865     -0.801341     -0.019816
Pb      15.28804      8.00495     12.50062         1.183735     -1.267579     -1.102492
Pb       4.09294     11.59870      4.01383        -1.032583     -0.601989      0.866649
Pb       4.00335     11.44065     16.45252         0.536824     -0.241551      0.026648
Pb      15.51585     11.87124      3.99954         0.753117     -0.977075      0.468237
Pb       0.07715     11.55999      0.14440        -0.340911     -1.266455      0.109087
Pb       3.99851     11.47810      7.97290        -1.100263      0.646072      0.248694
Pb       0.14069     11.82892      8.71997        -0.023390     -0.128998     -0.988779
Pb       3.98366     11.39951     12.38909        -1.314966      0.768022     -0.112604
Pb       0.05203     11.66933     12.69936         1.358505     -1.444769     -0.663971
Pb       7.52435      3.75691      4.27892        -0.215266     -0.315637     -0.192809
Pb       7.69405      4.21029      0.19063         0.480366     -1.158335     -0.017178
Pb       7.52827     15.47437      4.41607         0.783554     -0.083155     -1.193235
Pb       7.74940     15.44241      0.13791        -0.055869      0.321102      0.388552
Pb       8.02908      3.76755      8.49185        -1.865284      0.228578     -0.358901
Pb       7.73002     15.57628      8.20822        -0.067295     -1.232124      1.009213
Pb       7.66284      3.77144     12.56802        -0.553013      0.530577     -0.659708
Pb       7.84135      0.18962     12.33101        -0.984420     -0.762504     -0.939313
Pb       7.96562      7.84587      4.31571        -0.322700     -0.054304     -0.728263
Pb       7.73714      7.53774      0.02110        -0.083044      1.262323     -0.057985
Pb       7.64891      7.75071      8.18950         0.552017     -0.614896     -0.316631
Pb       8.00410      7.72060     12.17640        -0.385511     -0.470354      0.113665
Pb       7.98976     11.50104      4.27256         0.027753      0.894646     -0.058588
Pb       8.03500     11.78117      0.05568        -1.103583     -0.972424      0.005667
Pb       8.39879     11.63314      8.36780        -3.434304      0.749640     -1.061901
Pb       7.36147     11.28548     12.31011         2.599325      2.396518      0.193211
Pb      11.48241      3.72655      4.44600         0.357381      0.007722     -0.467476
Pb      11.52020      3.88879      0.11653        -0.007314     -0.356540      0.408729
Pb      11.68114      0.15871      4.25367        -0.805525      0.349106     -0.546567
Pb      11.45107      0.01617     16.57996        -0.191168      1.828756      1.148475
Pb      11.67342      3.48930      8.33431         2.154939      0.978409      0.341911
Pb      11.85678     15.32060      8.62255         0.697199      1.323721     -0.500824
Pb      11.67098      4.10912     12.40255         0.373264     -0.651718     -1.317603
Pb      11.88304     15.57119     13.06219        -2.352609      1.909791     -2.397183
Pb      11.81320      8.03860      4.08473         0.036354      0.239440      0.634779
Pb      11.38769      8.00561      0.00829         0.000130      0.174359     -0.456645
Pb      11.58443      7.74549      8.16730         1.522441      0.443686      0.187066
Pb      11.60297      7.98374     12.54043         1.079238     -0.269179     -0.849777
Pb      11.66792     12.15545      4.32166        -0.421946     -0.798627     -0.167846
Pb      11.48759     11.90823      0.12112        -0.045872     -0.896430     -0.467171
Pb      11.84603     12.20703      8.67078         0.557750     -1.716534     -1.553982
Pb      12.19033     12.05045     12.82933        -2.157196     -2.255806     -0.846078
Ti       1.74278      2.08700      2.09445        -0.894141     -1.140053     -0.225206
Ti       2.05866      1.84957     14.60791         0.959853      0.590706      1.018791
Ti       2.03994     13.57178      1.81038        -1.414615      0.023694      0.973385
Ti       1.86298     13.64708     14.73281         1.151705     -1.579886     -1.779495
Ti      13.30462      2.15125      2.14319         2.576512     -3.000990     -1.069461
Ti      13.67328      2.13120     14.62054        -2.415873      1.184801     -0.476297
Ti      13.54693     13.79184      1.95772        -0.969770      0.837706      2.202366
Ti      13.53192     13.79212     14.83184         0.664796     -3.223487      2.217944
Ti       1.82236      1.85434      6.48591         2.518652      1.629219     -0.134324
Ti       1.83211     13.75218      6.50208        -0.532718     -2.080168     -1.850349
Ti      13.87248      1.93979      6.00003        -3.473635     -0.490320      0.699208
Ti      13.60208     13.87446      6.16383         1.245204      0.005256      3.479783
Ti       2.02542      1.98871     10.87629        -1.341928     -0.504154     -2.729018
Ti       2.14467     13.62203     10.61907        -0.181837      1.829069     -0.824876
Ti      13.67294      2.12168     10.54287         1.053254     -0.563331      0.203114
Ti      13.87865     13.78302     10.77666         0.334353      1.765201     -5.442909
Ti       1.98852      5.81072      2.09970        -3.647442      2.282461     -0.995683
Ti       1.88023      5.72780     14.50710         1.231218      1.763987     -0.612107
Ti      13.49064      6.02792      2.06618         3.235273     -1.439936     -0.340509
Ti      13.63754      5.88263     14.62761        -0.672833      0.545301      1.514454
Ti       1.85901      5.78657      6.11852         0.113318     -1.434850      1.217781
Ti      13.53962      5.83543      6.32060         2.618127     -0.532392      0.093221
Ti       2.00474      5.90191     10.55571        -2.305076     -2.297266     -1.684600
Ti      13.53966      5.96484     10.09918         2.507245      0.486410      2.420820
Ti       1.83734      9.72152      2.18895        -0.785442     -1.655351      0.049818
Ti       1.89166      9.48803     14.54359        -1.228429      1.515971     -0.787446
Ti      13.51319      9.88625      2.07225         1.602213     -0.000886     -0.165573
Ti      13.54542      9.81912     14.68989         0.155675     -0.718898      0.811131
Ti       1.87582      9.64655      6.33244        -1.211658      1.063237     -1.688136
Ti      13.59688     10.04232      6.29332         0.536384      0.123236     -1.289805
Ti       2.02140      9.57224     10.39175        -1.971628      0.629592     -1.095199
Ti      13.50913      9.94847     10.32779         1.056990     -3.600794      2.232250
Ti       5.69791      2.01374      1.99684         1.482755     -0.724314      1.155600
Ti       6.11976      1.78270     14.79088        -1.792858      1.718804     -1.220828
Ti       5.85461     13.53388      2.19510         1.452054      0.048029     -0.850390
Ti       5.80743     13.68073     14.55749         1.061100     -1.673669     -0.366498
Ti       5.93381      1.83898      6.27026        -3.333114      2.930683     -0.089460
Ti       5.77407     13.52697      6.23466         0.015071     -0.937559      1.686061
Ti       5.77267      1.96666     10.20079        -0.252544     -0.296513      0.661225
Ti       6.01481     13.75827     10.42200        -0.647511     -0.110828     -2.369771
Ti       5.84538      5.81022      2.16858         0.776795      0.363071     -1.140179
Ti       5.92299      5.72074     14.45368         0.593424     -0.376036      0.813155
Ti       5.93332      5.77367      6.07275         0.123698     -0.774561      2.445481
Ti       5.84340      5.68139     10.32425         0.352330      0.287386     -0.660873
Ti       5.83023      9.67331      2.21630         0.772251     -0.181303     -0.659772
Ti       5.76061      9.55176     14.38886         1.028567      0.373160      3.587207
Ti       5.84830      9.57189      6.12053        -0.363449      0.988909     -1.081636
Ti       5.91428      9.64941     10.08387        -0.481196      0.183408      1.060308
Ti       9.45145      2.26750      2.43767         1.108288     -3.808946     -1.746906
Ti       9.73632      2.18225     14.43559         3.317481     -3.045194     -0.736431
Ti       9.64053     13.94344      2.05617         0.564236     -1.867135      2.730936
Ti       9.48507     13.70789     14.39719         1.041251     -1.649468      0.359847
Ti       9.76435      1.93589      6.60429         0.563423     -2.222259     -3.711535
Ti       9.71280     13.72895      6.37508        -0.514929     -1.469186     -0.762169
Ti       9.83645      1.81791     10.41143         0.406217     -0.052853      1.498821
Ti       9.86813     13.55081     10.67866        -1.824972      0.847775     -0.403841
Ti       9.81470      6.06875      2.22806        -0.199432     -3.389181     -0.378480
Ti       9.90339      5.81834     14.52764        -1.705857      1.739654      0.383650
Ti       9.87294      5.74337      6.24759        -1.075933      1.285228     -1.750710
Ti       9.68078      5.83341     10.11045         1.695217     -0.468816      1.608922
Ti       9.67779      9.94139      2.22497        -0.939292     -0.152994     -0.074414
Ti       9.46359      9.73360     14.43838         1.709866      0.958128      2.521659
Ti       9.77836      9.55392      6.37051         0.194536      4.819559     -1.105287
Ti       9.82471      9.85656     10.36100         0.500018     -1.932612     -0.187126
O       2.12982      1.85938      0.20455        -0.521015      0.837447      0.097359
O       1.95111      1.91203     12.66618         0.507897     -0.180591      2.178083
O       1.65215     13.64847      0.02797         1.192734      0.235698      0.063936
O       1.98109     14.02192     12.81767        -0.828351     -1.291344      0.523794
O      13.13803      1.96368      0.28481         0.905975      0.170514     -0.744001
O      13.80724      2.19744     12.77550        -0.706477     -0.555055      0.462202
O      13.29711     13.72991      0.13865         0.142283      0.155314     -2.493533
O      14.07627     13.41631     12.47123        -1.328526      0.329245      4.481798
O       1.70934      1.80785      4.30762         1.267410      0.343788     -0.913621
O       1.79684     13.62675      4.59144        -0.032525      0.750974     -0.047146
O      13.66226      1.58817      4.20328         0.551846      1.071496      0.455584
O      13.61525     13.85998      4.44349         0.131615     -0.345589     -2.572815
O       1.98058      2.03025      8.34724        -1.291351      0.045480      0.927101
O       2.01951     14.01943      8.76805         0.451088     -2.003572     -1.230389
O      13.80806      2.21921      8.75657        -0.152356     -0.199080     -0.583653
O      13.57434     13.75154      8.67884        -0.740010      0.182469      0.148230
O       1.91053      5.63414      0.13623         0.812193     -0.129045     -0.771185
O       2.25556      5.96999     12.70599        -0.784353     -1.196673      0.720473
O      13.80519      5.93362      0.26318        -0.096669     -0.592951     -0.456545
O      13.08163      5.73982     13.01992         1.191872      1.127484     -1.852919
O       1.90514      5.82802      4.28182         0.934498      0.359103     -0.378593
O      13.65862      6.07832      4.51060        -0.743560     -0.388262     -2.055110
O       1.98749      5.78670      8.67980         0.133254     -0.259856     -0.582503
O      13.48877      5.90866      8.34826         1.132935     -0.668526     -0.051172
O       1.82642      9.78397      0.36849         1.185133      0.591152     -2.359658
O       2.05057      9.73583     12.66018         0.294677     -0.685478      1.240006
O      13.70866     10.05257      0.18670        -1.370988     -0.627889      0.163306
O      13.97135      9.75985     12.83055        -2.003399      1.900787      0.424136
O       1.51454      9.69087      4.44707         0.771451      0.401886      0.486599
O      13.54850      9.83388      4.34109         0.281545     -0.245768      1.837506
O       2.16280      9.58325      8.46428        -0.764083     -0.079128      0.764499
O      14.04761      9.60396      8.71089        -1.772242      0.720587     -1.526936
O       5.77813      2.01857      0.13836         0.209029     -0.726528      0.611618
O       5.78897      1.83893     12.92037         1.604618      0.166522      0.550527
O       6.01266     13.61624      0.34037        -0.217702     -0.066526      0.426058
O       6.14026     14.07609     12.77006        -0.686481     -0.648555      0.361168
O       5.64896      2.05807      4.46212         1.204767     -0.035210     -0.094323
O       5.66157     13.40006      4.47765         0.736701      1.154812     -1.226936
O       5.77703      2.05435      8.47930         0.865561      0.031820     -1.017542
O       5.96971     13.76066      8.56866        -1.297662     -0.164764      0.778687
O       5.92234      5.78011      0.11709        -0.998113      0.454695      1.156124
O       5.83526      5.36217     12.57691         0.028479      1.271569      0.774248
O       5.93038      5.77137      4.27519        -0.749444      0.012952     -0.510380
O       6.08435      5.91293      8.33396        -0.679662     -0.265043      2.132872
O       5.98558      9.93328      0.42083        -1.595199     -0.154005     -1.521961
O       5.76415      9.82760     12.62729        -0.803182     -1.714003     -1.002548
O       5.89036      9.70167      4.28681         0.067672     -0.060868      1.226684
O       5.79613      9.44038      8.35167         0.131405      0.458807      0.161256
O       9.65342      2.24191      0.51813         0.869347     -0.252975     -1.126713
O      10.04021      2.19102     12.35558        -1.827543     -1.617191      1.104984
O       9.75394     13.68903      0.25354        -0.534409     -0.023890     -1.593426
O       9.54817     13.42482     12.60856         0.014882      0.661237     -1.634705
O       9.71253      1.70622      4.33305        -0.548538      0.750265      0.529061
O       9.55998     13.73762      4.50694         0.536912      0.139674      0.192618
O       9.69990      2.12073      8.41907         1.408193     -0.343891      0.248378
O       9.75501     13.32442      8.43441         1.743407      1.852587      1.202834
O       9.54811      5.82485      0.30375         0.508365      0.271834      0.580323
O      10.12745      5.98399     12.72425        -0.847789      0.146837      0.620443
O      10.07654      6.06849      4.37071        -0.786967     -0.812946      0.675237
O       9.69246      5.78195      8.28620         0.118787      0.370943      0.904895
O       9.58352      9.50957      0.47209         0.243638      1.309634     -0.612109
O       9.50982      9.74024     12.71817         0.396988     -0.350254     -2.317166
O       9.77125      9.80727      4.44345        -0.322488     -0.819674     -0.194867
O       9.73738      9.84483      8.52080         1.011675     -1.690585     -0.058831
O       3.94135      2.01753      2.40181        -2.051753     -0.402261     -0.455376
O       4.07195      2.00936     14.87047        -2.287798     -0.152000     -0.486962
O       3.83824     13.40990      2.10812        -0.407330      0.534676      0.166837
O       3.97101     13.80554     14.79897        -1.281412      0.321917      0.113809
O      15.52883      2.05329      2.11389         1.083354     -0.743852     -0.210017
O      15.36195      1.70531     14.97545         2.611401      0.252463      0.012484
O      15.35421     13.82628      1.91420         1.828269     -0.891829      0.771367
O      15.43654     14.03558     14.74921         0.859598     -1.582270      0.585405
O       3.99897      2.11890      6.68378         0.256934      0.007824     -0.914575
O       3.92411     13.63519      6.49064        -0.222951      0.088657      0.879827
O      15.59008      1.92065      6.29087         1.183580     -0.222443      0.662810
O      15.49165     13.95229      6.65272         1.016797     -0.112677     -0.241930
O       3.91217      2.24322     10.49083        -0.639907     -0.245110      0.740657
O       4.03604     13.83110     10.85968        -0.926951     -0.972314      0.328524
O       0.13128      1.94898     10.70090        -0.546069      0.025772     -0.481209
O       0.06657     13.61266     10.45294         0.102730     -0.025458      0.445733
O       3.89171      5.95232      2.26804         0.108590     -0.364863     -0.351595
O       3.93991      5.67284     14.62186         0.245128      0.091160      0.996834
O       0.00380      5.60000      2.26182        -0.763254      0.785977      0.796487
O       0.06221      5.72719     14.56579        -1.356740     -0.201781      0.252154
O       3.91668      5.89026      6.49190         0.194616     -0.709968     -0.828091
O       0.04761      5.75444      6.10685        -0.420272     -0.553226      1.235115
O       3.91411      5.75998     10.57162         2.580303     -0.517096      0.089980
O      15.55937      5.86320     10.74824        -0.375502      0.437680     -0.009358
O       3.67964      9.72385      2.61496         0.995702     -0.221371     -0.779466
O       3.73865      9.64938     14.70904         1.809707     -0.433433      0.673200
O      15.55556      9.67800      2.05246        -2.349124      0.559202      0.949124
O      15.45664      9.92924     14.89457         1.420946      0.048247     -0.285241
O       3.79792      9.66088      6.27819         0.231536      0.003817      0.529167
O       0.00916      9.94802      6.69043        -1.362094     -0.847978     -0.344414
O       3.90356      9.56985     10.41666         2.983775      0.441176      1.257816
O       0.25167      9.46307     10.75281        -1.993605     -0.292815     -0.404229
O       7.61644      2.06764      2.29169         0.050673     -0.942613      0.753097
O       8.03379      1.95981     14.80609        -2.615759     -1.533342      0.017205
O       7.72506     13.65560      2.54063        -0.106203      0.556575     -0.664595
O       7.74636     13.68326     14.89602         0.023078      0.023329      0.226809
O       7.84152      1.84158      6.49268         0.174971      0.351740     -0.156509
O       7.68465     13.70035      6.64325        -0.032200      0.286513     -1.151855
O       7.99386      1.97707     10.19341        -0.231761      0.037517      1.565451
O       7.83745     13.93259     10.35908         1.055744     -1.158189      1.727115
O       7.61675      5.99510      2.31872         2.341095     -0.472748      0.049013
O       7.84369      5.96044     14.68266         0.086542     -0.382875     -0.551072
O       7.95193      6.27505      6.29111        -0.356623     -0.972943     -0.375406
O       7.85013      5.82763     10.79763         1.090461     -0.445832     -0.983703
O       7.75609      9.74323      2.36196         0.949965      0.155564      1.091343
O       7.64870      9.80659     14.70230        -1.660706      0.183788     -0.284392
O       7.80580      9.38360      6.45931        -0.723449      0.282418     -0.422246
O       7.87880      9.83339     10.45775        -2.254210     -0.839784      0.690173
O      11.63303      1.88599      2.50444        -2.597152      0.772216      0.641354
O      11.65436      1.79328     14.81983        -0.906246      0.859632     -0.887218
O      11.60218     13.87381      2.24632        -0.326174     -1.519395      0.539445
O      11.61414     13.65749     14.36349         0.740590      0.363175      0.609526
O      11.67992      2.03468      6.21299        -1.256708     -0.442610      0.864301
O      11.62462     13.48915      6.39747         0.290555      1.107417      0.329745
O      11.86553      1.81938     10.48755        -1.755523      0.153311     -0.667300
O      11.79037     13.46549     10.75819        -1.003777      0.648134      0.007458
O      11.76964      5.62320      2.01906        -3.155944      0.277728      0.421804
O      11.65122      5.92772     15.04427        -1.106512     -0.331087      0.332839
O      11.80994      5.89643      6.44114        -4.249566     -0.342993      0.383346
O      11.82262      5.85090     10.34506        -3.957703      1.133965      0.465720
O      11.58380      9.80933      2.24991         0.689554      0.182888     -0.005312
O      11.56477      9.74171     14.78321         1.000743     -0.264646     -0.154999
O      11.65554      9.83106      6.49563         2.016608     -0.297687      0.414741
O      11.66287      9.90173     10.79131         0.347300     -0.457883     -0.401944
O       1.83978      3.95099      2.25441         1.247359     -2.571013      0.139816
O       1.84572      3.79751     14.62224         0.415467     -0.420498      0.291511
O       1.88851     15.46040      2.24185         0.353139     -0.039634     -0.108341
O       2.03672      0.07448     14.84175        -0.066213     -0.308553     -0.096652
O      13.61398      3.84700      2.42806        -0.455167      2.094040      0.434695
O      13.68508      3.98907     14.85183        -0.134547     -1.615988      0.640321
O      13.50826      0.01270      2.13221         0.491052     -0.424862     -0.299818
O      13.45540     15.58044     14.57291         0.525404      1.163633      0.636455
O       2.03859      3.78615      6.30157        -0.261868      1.796092     -0.015187
O       2.25091      0.08969      6.54406        -0.679887     -1.270189     -0.432548
O      13.47607      3.78538      6.13960         0.774027      0.526621      0.072124
O      13.52295      0.13120      6.49626        -0.680323     -0.262577      0.276657
O       1.53173      3.94343     10.64385         2.176226     -1.383712      0.794574
O       1.87672     15.44845     10.67955         0.452037      2.670263      0.828380
O      13.53590      4.15102     10.70444         0.815636     -2.279434      0.356777
O      13.79432      0.04963     10.77822        -0.223467     -0.724346      0.267581
O       1.62269      7.66654      1.82371         1.575874     -0.238394      1.354112
O       1.53105      7.75464     14.81679         1.685875     -0.348796      0.166149
O      13.30168      7.83959      2.12356         0.632261      0.777461      0.561972
O      13.65252      7.73620     14.74975        -0.028832      2.119902      0.211825
O       1.76178      7.71793      6.47848         0.470699     -0.099418     -0.252969
O      13.73487      7.68787      6.68716         0.180296      1.872200     -0.776994
O       2.04366      7.60675     10.72694         0.771180      3.693081      0.212106
O      13.69029      7.86635     10.91640        -1.402133     -0.219174     -0.920526
O       1.60636     11.70983      2.08091         0.421714      1.588699      0.897451
O       2.08370     11.78540     14.49278        -0.882765      1.159662      0.961799
O      13.62348     11.70548      2.46155        -0.324935      1.162441     -0.635898
O      13.38594     11.88938     14.85859         0.839037     -0.714168     -0.693666
O       1.81140     11.88194      6.69666         1.006476     -0.239995      0.474816
O      13.55508     11.90990      6.35016         0.577598     -2.039201      0.048433
O       1.60308     11.44980     10.61582         2.063463      2.499757      0.193106
O      13.85642     11.64770     10.39012         0.155462      1.928762      1.184919
O       5.93069      3.85502      2.21019        -0.749661      1.321570      0.093694
O       6.22983      3.90796     14.85752        -0.746709     -0.702178     -0.790835
O       5.77865     15.51477      2.52195        -0.431553      0.189652     -0.635599
O       5.90538     15.51520     15.10479         0.380945      1.607023     -0.277541
O       6.13749      3.92346      6.43359        -0.050265      1.391067     -0.384739
O       5.71617      0.07087      6.42290         0.751730     -2.547298     -0.333673
O       6.16944      3.86003     10.55134        -0.407873      0.265063     -0.464704
O       5.95564      0.15023     10.43624         0.035313     -0.047505      1.030937
O       5.92320      7.84738      2.19824        -1.534631     -1.812379      0.252658
O       5.88145      7.72348     14.83227        -0.907806      0.841222     -0.904442
O       5.63929      7.73826      6.16610         0.489384     -0.640321      0.532040
O       5.95462      7.67330     10.56227        -0.028643      1.198866      0.166679
O       5.84825     11.60965      2.42035        -0.604026      1.635141      0.295818
O       5.64553     11.68216     14.67430        -0.073438      0.071540     -0.486529
O       5.60829     11.46957      6.38533         1.103212      1.166685     -0.017272
O       5.87612     11.74803     10.60974        -0.434487     -1.190366     -0.055446
O       9.54831      3.98713      2.49338         0.401722      2.736612      0.760261
O       9.56202      3.88121     14.41205         1.028391      3.124191      0.759639
O       9.72568      0.05179      2.14886        -0.865725      1.168562     -0.004034
O       9.83831     15.52427     14.52245        -0.628269      0.641371     -0.039825
O       9.70982      3.86023      6.19316        -0.172561      0.989759      0.589904
O       9.72180     15.56623      6.73899         0.509489      0.816149     -0.136720
O      10.08819      3.96048     10.31783        -1.201514      0.399507     -0.033274
O       9.72480     15.45620     10.22848         1.342935      1.114742      0.959074
O       9.74695      7.75739      2.46157         0.375872      1.957586     -0.224332
O       9.49904      7.93552     15.04245         1.387092     -1.263695     -1.386905
O      10.01521      7.84445      6.53875        -0.289650     -2.942401     -0.106687
O       9.70600      7.80039     10.60934         0.532818     -0.487921     -0.285557
O       9.54908     11.84022      2.30066         0.683006     -1.150159     -0.224982
O       9.69991     11.72311     14.82255        -0.080567      0.128569      0.612592
O       9.57316     11.63039      6.39849        -0.180327      0.210160     -0.321272
O       9.74363     11.63820     10.33950        -0.133534      2.550024      1.474472
