  # total energy = -7882.92768823 
CRSYTAL
PRIMVEC
    15.464    0.0000000000000000    0.0000000000000000
     0.0000000000000000   15.464    0.0000000000000000
     0.0000000000000000    0.0000000000000000   17.350608
PRESSURE
-1.68075 -1.59067 -0.564101 -0.246724 -0.066015 -0.003749
PRIMCOORD
320 1
Pb       3.76476      3.92220      4.23230         0.422249     -0.293150      0.130326
Pb       3.68581      3.86275      0.09286         0.414399     -0.354410     -0.537049
Pb       3.88893     15.33392      4.30705        -0.338313      0.471960     -0.043623
Pb       3.69666     15.41019      0.03513         0.421110      0.221070     -0.161470
Pb      15.31107      3.84943      4.26713         0.616770      0.153028     -0.132579
Pb       0.04819      3.99666     17.28670         0.059510     -0.758041     -0.167302
Pb       0.00218      0.00759      4.37219         0.036920      0.007644     -0.544697
Pb       0.03870      0.01046     17.29861        -0.389614      0.190589      0.202168
Pb       3.90130      3.83622      8.68113        -0.085199      0.038666     -0.743241
Pb       3.79823      0.07576      8.59758         0.615971     -0.581279     -0.318454
Pb       0.10352      3.96076      8.75891        -0.175302     -0.036555     -0.744235
Pb       0.05604      0.01325      8.65368        -0.340495     -0.234417     -0.611215
Pb       3.93783      3.90576     13.09098        -0.160206     -0.588081     -0.640628
Pb       3.79856      0.05790     13.01126         0.174731      0.006177     -0.867121
Pb       0.00697      3.81401     13.03520        -0.000215     -0.332060     -0.621324
Pb       0.01217     15.36718     13.07089        -0.243334      0.316450     -0.707519
Pb       3.90900      7.70759      4.38222        -0.030810      0.246124     -0.405076
Pb       3.99488      7.78508     17.17335        -0.351184     -0.217849      0.330723
Pb       0.12442      7.74857      4.40185        -0.549789     -0.419054     -0.404430
Pb       0.02020      7.68291     17.26021        -0.042659      0.519676     -0.382413
Pb       3.77291      7.67237      8.63368         0.162114     -0.027547     -0.123441
Pb      15.26149      7.78241      8.57223         0.373648     -0.608069      0.295329
Pb       3.80640      7.71193     12.98368         0.233938      0.523875     -0.052947
Pb      15.43633      7.56557     13.06668        -0.054909      0.206241     -0.912230
Pb       3.78974     11.50986      4.29226         0.247308     -0.321710     -0.443019
Pb       3.77806     11.58236     17.28693         0.551232      0.012040     -0.291769
Pb       0.03811     11.57027      4.28607        -0.626896     -0.054009     -0.869821
Pb      15.46160     11.56169     17.32220        -0.268974     -0.113236     -0.223039
Pb       3.80876     11.52299      8.59431         0.574611     -0.012671     -0.089699
Pb       0.07270     11.62945      8.72971        -0.816882     -0.235519     -0.250079
Pb       3.84342     11.64068     12.93513         0.394343     -0.742314     -0.424136
Pb       0.00623     11.49423     13.23238        -0.311152      0.145123     -1.147209
Pb       7.76910      3.89961      4.19693        -0.101874      0.098418      0.456150
Pb       7.69590      3.85182     17.32457        -0.234499      0.166218     -0.405370
Pb       7.59934      0.02641      4.30612         0.634393     -0.570970      0.081672
Pb       7.77323      0.02280     17.32249        -0.602366     -0.520509      0.003879
Pb       7.73201      3.80704      8.67969         0.414921      0.386155     -0.391404
Pb       7.75137     15.34481      8.57190        -0.452741     -0.001267      0.203756
Pb       7.73827      3.90169     13.01894         0.066776     -0.366176     -0.728744
Pb       7.59385     15.35410     12.93068         0.500049      0.112953     -0.940398
Pb       7.70318      7.65876      4.31726         0.085049     -0.172330     -0.380346
Pb       7.64079      7.68293     17.23252         0.211100      0.013154      0.101034
Pb       7.74516      7.73807      8.63531         0.281928     -0.285086     -0.072749
Pb       7.75131      7.70412     12.91731         0.208176     -0.298561     -0.198152
Pb       7.69313     11.57695      4.26638        -0.207444      0.220326     -0.406311
Pb       7.74754     11.67372     17.35008        -0.539363     -0.248213     -0.564731
Pb       7.74580     11.54748      8.65360        -0.186635      0.019662      0.185192
Pb       7.74956     11.66764     13.06151        -0.158750      0.294839     -1.143945
Pb      11.73146      3.86845      4.12786        -0.558714      0.167545      0.700913
Pb      11.59988      3.80458     17.24871        -0.348951      0.576534     -0.007066
Pb      11.51939      0.08285      4.27290        -0.038148     -0.298299     -0.089597
Pb      11.59199      0.03299     17.24648         0.242256     -0.204391      0.117839
Pb      11.41828      3.79171      8.49251         0.776829      0.343388      0.689450
Pb      11.63746      0.03000      8.67097         0.068212     -0.094653     -0.899217
Pb      11.53669      3.85157     12.92979        -0.034397     -0.617854     -0.113759
Pb      11.58046     15.42998     12.98312        -0.193184      0.311948     -0.617094
Pb      11.49612      7.77545      4.38505         0.086942     -0.303941     -0.354385
Pb      11.49850      7.74212      0.00969        -0.100605     -0.533023     -0.359826
Pb      11.62972      7.76560      8.51790        -0.447497     -0.276246      0.093200
Pb      11.61071      7.74778     12.92057        -0.220812     -0.753665     -0.360967
Pb      11.55218     11.64254      4.25152         0.233896     -0.329688     -0.371858
Pb      11.59401     11.51721      0.01391         0.177008      0.141915     -0.444369
Pb      11.72928     11.64037      8.71145        -0.205358     -0.408331     -0.497560
Pb      11.47849     11.52792     13.18981         0.253973      0.612618     -1.034310
Ti       1.92947      1.94372      2.38347        -0.386964     -0.545410      0.617800
Ti       1.93839      1.87546     15.34942        -0.046989      1.116602      0.064029
Ti       1.85540     13.49114      2.30459        -0.440384      0.579232      0.580012
Ti       1.88000     13.53501     15.26062         0.117096     -0.878296      0.693388
Ti      13.51419      1.87084      2.27764         0.954267     -0.146346      0.403344
Ti      13.45612      1.97571     15.39915         1.531764     -0.896028     -2.010214
Ti      13.49317     13.53876      2.21083         0.580594     -0.781111      1.747305
Ti      13.53125     13.55475     15.34785         0.299071     -0.380744      0.257631
Ti       1.95051      1.86207      6.58683         0.217530      0.561672     -0.214881
Ti       1.84036     13.43865      6.58067         0.589914      0.888153      2.294532
Ti      13.61155      1.85560      6.59467        -0.674522     -0.042797      0.948578
Ti      13.48458     13.46763      6.51700        -0.465544      0.332426      2.436669
Ti       1.94636      1.87881     10.92819         0.208475      0.504406      0.966771
Ti       1.96526     13.45534     10.86814        -0.592989      0.655383      1.622509
Ti      13.57110      1.84035     10.87505        -0.440582      0.397441     -0.279008
Ti      13.52445     13.49402     11.02473         0.091020     -0.889571      0.592487
Ti       1.81422      5.85718      2.25687         0.533355     -0.817136      1.246499
Ti       1.97054      5.88419     15.26883         0.171295     -1.057428      0.343603
Ti      13.49511      5.81251      2.16126         0.435542      0.035104      2.742502
Ti      13.52001      5.77679     15.31159        -0.728867      0.026608      0.026117
Ti       1.91854      5.73848      6.55931        -0.830605     -0.428261      1.341659
Ti      13.54346      5.64230      6.61141        -0.139078      0.418297      0.468711
Ti       1.99708      5.79712     10.99485        -0.782901     -0.665649     -0.063569
Ti      13.55277      5.64040     10.98890        -0.724372      1.131387     -0.497321
Ti       1.80714      9.59567      2.18967         1.000635      0.170288      1.040884
Ti       1.92972      9.65785     15.27460        -0.453174     -0.025664      0.311056
Ti      13.42644      9.56631      2.26846         0.579551      0.828358      1.294549
Ti      13.45640      9.58859     15.33918         1.272421      0.579925      1.922604
Ti       1.94117      9.61142      6.64384        -0.064879     -0.709345      0.511911
Ti      13.59262      9.64744      6.53561        -1.231873     -0.031508      0.850587
Ti       1.94027      9.63247     10.94143        -0.114208      0.122768      0.006546
Ti      13.50683      9.69756     11.12359         0.490639     -0.130642     -0.735792
Ti       5.85405      1.89750      2.34838        -0.947331      0.059601     -0.061235
Ti       5.73840      1.81903     15.31532        -0.248404      0.814273      1.021350
Ti       5.71468     13.47018      2.33619         0.700714     -0.363882      0.286689
Ti       5.73503     13.48722     15.23085         0.454765     -0.613336      0.895686
Ti       5.86483      1.87991      6.67074        -0.740625      0.326740      0.099088
Ti       5.76820     13.44226      6.60109        -0.457778      0.677511      0.545557
Ti       5.71589      1.92364     10.89708         0.749754     -0.455895      1.364347
Ti       5.71029     13.46079     10.90528         1.105558      0.293033      0.481232
Ti       5.68986      5.78066      2.27488         1.207221      0.011552     -0.339257
Ti       5.77782      5.66654     15.28543         0.069543      0.676588      0.579468
Ti       5.77333      5.79845      6.72244         0.076595     -0.778445      0.024681
Ti       5.78878      5.75977     11.01329         0.807089     -0.062813     -0.177444
Ti       5.68348      9.58389      2.32151         0.057912      0.622695      1.230206
Ti       5.81280      9.64681     15.21613         0.175173      0.109142     -0.164820
Ti       5.81321      9.60893      6.63762        -0.673405      0.143038     -0.549404
Ti       5.87373      9.48416     10.91082        -1.098741      2.102401      0.627602
Ti       9.67468      1.88098      2.23097        -0.314842     -0.120847      1.853891
Ti       9.56284      1.82983     15.25975         0.408494      1.095101     -0.695278
Ti       9.63879     13.46955      2.22677        -1.080271      0.697666      1.200608
Ti       9.70461     13.48908     15.33781        -0.620783     -0.755321     -1.192309
Ti       9.64769      1.79003      6.54450         0.381679      0.800871      0.744944
Ti       9.64205     13.45207      6.66363         0.470253     -0.044508      1.155581
Ti       9.56628      1.89590     10.90245         0.323900      0.557409      1.773939
Ti       9.70700     13.55510     10.86645        -0.476385      0.015363      2.867435
Ti       9.68084      5.74738      2.28280        -0.142666      0.613569     -0.691262
Ti       9.64809      5.70484     15.31528         0.179200      0.579164     -0.043958
Ti       9.61260      5.75198      6.62130         0.549985      0.401517     -0.249331
Ti       9.65977      5.79234     11.05152         0.158011     -0.566300     -0.285672
Ti       9.55948      9.60993      2.23394         0.290929     -0.287720      0.623308
Ti       9.67735      9.58783     15.28271        -0.625926      0.444156      0.489984
Ti       9.62418      9.69212      6.58212         0.851362     -0.701736      1.331176
Ti       9.67494      9.74079     10.96916        -0.389432     -0.221077     -0.826328
O       1.97727      1.87634      0.62174         0.048636     -0.123164     -0.632604
O       2.08076      1.84005     13.60076        -0.471591      0.087818     -0.180794
O       1.70852     13.63049      0.56994         0.875252     -0.162743     -0.906809
O       1.87036     13.49189     13.52699        -0.013631     -0.034336     -0.507093
O      13.45079      1.92169      0.53403        -0.007611     -0.245163     -0.777854
O      13.68824      1.75276     13.60716        -0.368522      0.711321      1.106591
O      13.55879     13.59115      0.48815        -0.218305     -0.138906     -0.836429
O      13.67602     13.53579     13.59606        -0.395573      0.128149     -0.132107
O       1.82775      1.73703      4.82021         0.448209      0.782453      0.127293
O       1.75970     13.50208      4.90263         0.218137     -0.274198     -2.076066
O      13.57613      1.75773      4.81479        -0.292223      0.472689      0.125701
O      13.46258     13.38957      4.80813        -0.120921      0.111019     -0.869146
O       2.05049      1.95709      9.16446        -0.228797     -0.282091     -0.223467
O       1.90623     13.62026      9.11452        -0.009010     -0.573379     -0.077121
O      13.53690      1.86061      9.03946         0.212618     -0.279390      2.034638
O      13.56001     13.26403      9.28548        -0.047064      0.631123     -0.121199
O       2.01685      5.73835      0.52803        -0.362578      0.470189     -1.294705
O       1.92583      5.85348     13.52035        -0.164891     -0.327881     -0.602049
O      13.50599      5.72501      0.47292        -0.128889      0.247635     -1.928290
O      13.47022      5.73578     13.56058         0.529126     -0.141893     -0.203945
O       1.69766      5.69601      4.83410         0.629072      0.064149     -1.104487
O      13.67184      5.68901      4.85436        -0.413568     -0.071150     -0.227989
O       1.95818      5.70812      9.21610        -0.206554      0.131302      0.768689
O      13.46282      5.68595      9.21208         0.426160      0.008910      0.560788
O       1.87229      9.44775      0.43834         0.233378      0.403851      0.049228
O       1.87211      9.63942     13.52438        -0.125290      0.326051     -0.365513
O      13.38681      9.68508      0.53196         0.042318     -0.283420     -0.761389
O      13.54368      9.78379     13.64496        -0.048655     -0.337625     -1.988219
O       1.80418      9.57732      4.86925         0.414589      0.143191      0.678539
O      13.60580      9.56023      4.78576        -0.068042      0.287047      0.252512
O       1.96938      9.61805      9.14010        -0.136668     -0.094996      0.534035
O      13.51634      9.69756      9.36488        -0.059494      0.066104     -0.166738
O       5.74398      1.84117      0.60506         0.362583      0.058464     -0.097420
O       5.66294      1.96069     13.59166         0.154071     -0.118237      0.046330
O       5.75035     13.41005      0.59698        -0.247780      0.286447     -0.700953
O       5.80339     13.33492     13.45932        -0.055288      0.471664      0.984428
O       5.95671      1.79565      4.92773        -0.470560      0.240517     -0.918994
O       5.86431     13.62280      4.82142        -0.324958     -0.750136      0.825280
O       5.60614      1.86400      9.14851         0.411177      0.499271     -0.287134
O       5.76341     13.54533      9.16107        -0.176590     -0.312930     -0.441401
O       5.80528      5.79502      0.49835        -0.403944      0.096215      0.443491
O       5.83860      5.71195     13.52190         0.000149      0.032714     -0.262053
O       5.75395      5.72806      4.97939         0.104668      0.342485     -0.454184
O       5.69588      5.89225      9.27629         0.278205     -0.515707     -1.192569
O       5.68519      9.58248      0.59341        -0.118851     -0.139584     -0.766018
O       5.74718      9.70055     13.43233         0.471036     -0.170643      1.281999
O       5.63701      9.61750      4.82126         0.178961     -0.168330      0.897427
O       5.81352      9.61241      9.13604         0.053023     -0.178303      0.764366
O       9.63153      1.88618      0.50405         0.098749      0.028558     -1.047186
O       9.55833      1.91879     13.49983        -0.084439     -0.350149      1.144321
O       9.55577     13.51789      0.48863         0.110363     -0.095162     -0.603700
O       9.63435     13.45836     13.50973         0.026133      0.128308      1.944072
O       9.67411      1.81342      4.78152         0.163259      0.104889      0.469095
O       9.53718     13.38610      4.94985         0.389876      0.011681     -1.232746
O       9.59450      2.01665      9.14815        -0.050876     -0.584878      0.247985
O       9.67978     13.57160      9.15198        -0.108787     -0.030874     -0.957465
O       9.88569      5.73056      0.47075        -0.879836      0.114315      0.913287
O       9.62911      5.78532     13.54034        -0.211109     -0.244102      0.431543
O       9.59570      5.86436      4.83190         0.084098     -0.260532      0.156063
O       9.62167      5.66009      9.32529         0.070901      0.341801     -1.192121
O       9.72729      9.61252      0.46137        -0.037360      0.047921      0.562791
O       9.88246      9.72685     13.52028        -0.956595     -0.262986      0.252775
O       9.74827      9.51267      4.83818        -0.512345      0.444565     -0.181349
O       9.58259      9.76482      9.17205         0.160640     -0.436909      1.083457
O       3.90542      1.96698      2.72752        -0.314218      0.153553      0.282869
O       3.84965      1.94543     15.85779         0.197931     -0.873686     -0.148013
O       3.77417     13.33947      2.73415         0.284155      1.044374      0.059629
O       3.77605     13.49892     15.70163         0.724582      0.049468      0.086104
O      15.40902      1.75731      2.78400         0.040833      0.339202     -0.647820
O       0.06426      1.95432     15.77791        -0.500160     -0.034399      0.002880
O      15.45000     13.43648      2.67373        -0.790902      0.564712      0.225068
O      15.43986     13.52377     15.69443         0.075838      0.060733      0.166841
O       3.92393      1.98378      6.99150        -1.320255     -0.275462     -0.131854
O       3.82602     13.47101      6.89940         0.062688     -0.490209     -0.069635
O       0.05919      1.75609      7.03300        -0.704473      0.220070     -0.170422
O      15.32455     13.52861      7.03009         1.375596     -0.065019      0.045258
O       3.91138      2.01421     11.51511        -0.983548      0.051980     -0.498731
O       3.85217     13.48136     11.48240        -0.698593      0.089915     -0.733444
O       0.05220      1.75373     11.31613        -0.940589     -0.015719     -0.263207
O       0.01934     13.47037     11.35349         0.195662      0.328838     -0.093799
O       3.83343      5.67085      2.67332        -0.435366      0.274887      0.162013
O       3.89044      5.96838     15.54551        -0.601604     -0.526291      0.317891
O      15.45261      5.83824      2.59868        -0.943172     -0.203396     -0.247588
O       0.01358      5.76874     15.68198         0.102905      0.053032      0.052702
O       3.80791      5.79671      6.98631         0.326812     -0.444361      0.082161
O      15.41885      5.78750      7.02416        -0.192585     -0.038179      0.562011
O       3.88464      5.72443     11.31430        -1.045338      0.127605      0.613932
O      15.43521      5.77806     11.39787         0.691559     -0.163100      0.212360
O       3.74437      9.58051      2.77824         0.272473      0.199304     -0.309008
O       3.84302      9.58818     15.60058         0.383815     -0.166613      0.251313
O       0.01282      9.61380      2.61702        -0.920508     -0.203991      0.032031
O       0.00498      9.65747     15.78469        -0.532688     -0.033227     -0.206420
O       3.89061      9.61009      7.16791        -1.281439      0.082332     -0.826828
O      15.44604      9.60044      7.09053         0.058958      0.064628     -0.396463
O       3.84479      9.59635     11.44337         0.323731      0.187837     -0.565565
O       0.01865      9.74638     11.33233        -0.360561     -0.269869      0.492592
O       7.77860      1.88981      2.69874        -0.509739      0.443916     -0.337685
O       7.69458      1.96357     15.75426        -0.247214     -0.402821     -0.095797
O       7.62834     13.41878      2.73928         0.852110      0.152506     -0.320368
O       7.64022     13.44802     15.71950         0.199636     -0.204925     -0.169175
O       7.75482      1.92021      6.96962         0.170159     -0.482131      0.513012
O       7.74532     13.46937      7.12955        -0.738348      0.193184     -0.376720
O       7.63681      1.86107     11.41944         0.112779      0.013730     -0.538838
O       7.73882     13.50817     11.37517        -0.443180      0.595671     -0.077597
O       7.71084      5.88035      2.62358         0.473983     -0.455856      0.111018
O       7.67929      5.76069     15.78837         0.797101     -0.283107     -0.172436
O       7.76441      5.82367      7.04285        -1.384356     -0.216639      0.342721
O       7.75776      5.80049     11.34334        -1.100783      0.356396      0.709926
O       7.64396      9.52079      2.64424         0.711203      0.378579     -0.024445
O       7.76282      9.75827     15.73729        -0.476187     -0.407849     -0.570268
O       7.67520      9.61075      6.94405         0.631367      0.067532      0.017070
O       7.73361      9.56842     11.32925         0.023477      0.059741      0.192625
O      11.60166      1.93418      2.70955        -0.200754     -0.329229     -0.211954
O      11.54861      1.96407     15.60081        -0.396886     -0.354607      0.379942
O      11.47543     13.42738      2.59985         0.795676      0.131758      0.024255
O      11.62165     13.55201     15.69501        -0.561553     -0.058237      0.042030
O      11.54324      1.96775      7.03126         0.068579     -0.678763     -0.543474
O      11.58782     13.55180      7.12614         0.178835     -0.720987     -0.434783
O      11.54367      1.98300     11.40233         0.306629     -0.373592     -0.542310
O      11.55427     13.52738     11.38958         0.203516      0.032060     -0.136755
O      11.59265      5.75586      2.68976         0.457817     -0.157914     -0.040422
O      11.56653      5.81228     15.67109         0.110268     -0.194494      0.110830
O      11.57461      5.83736      6.96871        -0.079965     -0.559703      0.003317
O      11.56322      5.60218     11.45788         0.919214      0.541294     -0.158041
O      11.54395      9.63587      2.76658         0.033261      0.157351     -0.484976
O      11.59618      9.60779     15.72095        -0.302786      0.222013      0.131347
O      11.57460      9.70448      6.99378         0.147672     -0.544592     -0.204826
O      11.50691      9.63617     11.43272         1.062453      0.151452     -0.064672
O       1.73141      3.84808      2.59290         0.735901     -0.141764      0.521661
O       1.97788      3.85234     15.70193         0.142494      0.537561      0.156453
O       1.94942      0.00367      2.72956         0.271266     -0.831156     -0.029270
O       1.86114     15.40008     15.66667         0.446710      0.528785      0.347525
O      13.61499      3.80885      2.54003        -0.450618      0.302564      0.558029
O      13.55092      3.88567     15.74657        -0.176751     -0.429744      0.027826
O      13.45808     15.38345      2.68311        -0.316960      0.040316     -0.173551
O      13.44070      0.06602     15.74345         0.433677     -0.769955      0.271697
O       1.75520      3.84305      7.00902         0.739808     -0.567977     -0.050321
O       1.97876     15.41052      6.90800        -0.191387     -0.043906      0.544827
O      13.52249      3.76944      6.98957         0.263779      0.047786     -0.355460
O      13.41217     15.43452      6.99390         0.306928     -0.178171      0.017730
O       1.77325      3.78536     11.37683         0.586295      0.614457      0.027341
O       2.02766      0.00012     11.35237         0.147095     -0.564344     -0.105021
O      13.61882      3.72840     11.39687         0.127662     -0.136616     -0.006647
O      13.36873     15.40614     11.39491         0.769906      0.611706     -0.437208
O       1.88024      7.66808      2.76878         0.349885      0.627183     -0.305976
O       1.83214      7.74939     15.55130         0.071671     -0.564993      0.544915
O      13.51129      7.66979      2.57846        -0.221231      0.471281     -0.117153
O      13.57260      7.67777     15.62515        -0.086220      0.486827      0.319119
O       1.87475      7.59203      6.95610         0.112389      1.780038      0.134396
O      13.44860      7.68394      7.03316         0.499273      0.790984     -0.128680
O       1.98776      7.71432     11.49435        -0.614134     -0.476354     -0.711038
O      13.55746      7.61445     11.35671        -0.498942      1.000824      0.553790
O       1.83023     11.57885      2.61448         0.346294     -0.953986      0.095290
O       1.92969     11.55955     15.70776        -0.270951      0.465494      0.033637
O      13.55452     11.55880      2.67341        -0.488117     -0.009954     -0.100944
O      13.56765     11.57447     15.78485        -0.486853      0.304179     -0.084502
O       1.86777     11.49463      6.96915         0.078221      0.645308      0.135543
O      13.49633     11.53788      7.07944         0.294304      0.004915     -0.605186
O       1.96696     11.56325     11.22559         0.183039      0.388526     -0.015079
O      13.36252     11.60547     11.53211         0.572642     -0.502766      0.021072
O       5.87155      3.91228      2.75828        -0.233570     -0.800729     -0.223594
O       5.70488      3.86159     15.77871         0.187173     -0.689847     -0.159430
O       5.81140     15.41181      2.77808        -0.535169      0.454956     -0.512107
O       5.81481     15.36927     15.60406        -0.309859      0.434061      0.028316
O       5.78950      3.82440      7.05613         0.226890      0.534773      0.363267
O       5.72692     15.38502      7.09607         0.546959      0.048759     -0.331706
O       5.80002      3.91562     11.43714         0.106009     -1.108155     -0.272490
O       5.63741      0.01204     11.23356         0.404728     -0.073863      0.696085
O       5.74804      7.67687      2.82102        -0.584413     -0.180941     -0.330843
O       5.87150      7.66865     15.71591        -0.036737      1.163171     -0.308205
O       5.71159      7.72771      7.09158         0.342884     -0.472665     -0.243373
O       5.78942      7.67128     11.37905        -0.015193      0.408210      0.246481
O       5.71437     11.57216      2.75630         0.044964     -1.058039      0.115444
O       5.68105     11.47991     15.81244         0.093172      0.779289     -0.486151
O       5.76795     11.50123      7.04069         0.042335      0.993647     -0.249144
O       5.82433     11.63535     11.30406        -0.241426     -1.284383     -0.036563
O       9.70193      3.85113      2.75059        -0.265361     -0.152697     -0.583887
O       9.63099      3.82549     15.66978        -0.129676     -0.293252      0.091874
O       9.55850     15.45804      2.69604         0.701747     -0.568080     -0.530169
O       9.57228     15.35887     15.78514         0.261146      1.214941     -0.460308
O       9.59048      3.84105      7.09267        -0.214465     -0.073053     -0.728706
O       9.72495     15.38879      7.05016        -0.496520      0.706499     -0.224827
O       9.49838      3.85659     11.36916         0.293249     -1.309668      0.454457
O       9.65547     15.44614     11.48353        -0.200115      0.413391     -0.809996
O       9.72637      7.68632      2.68878        -0.155833      0.379968     -0.285663
O       9.59939      7.73384     15.60566         0.073774     -0.287594      0.338215
O       9.57424      7.66909      7.08736         0.550730      0.998533     -0.094199
O       9.70037      7.68320     11.39978        -0.032485      0.946095      0.189282
O       9.55114     11.55789      2.66803         0.141878     -0.540759     -0.186635
O       9.69594     11.60185     15.71652         0.251321     -0.095573      0.126838
O       9.61701     11.54674      7.12969        -0.009370      0.030731     -0.732492
O       9.58857     11.65759     11.38199         0.307939     -1.080163     -0.147758
