  # total energy = -7869.20279534 
CRSYTAL
PRIMVEC
    15.6080000000000005    0.0000000000000000    0.0000000000000000
     0.0000000000000000   15.6080000000000005    0.0000000000000000
     0.0000000000000000    0.0000000000000000   16.6239999999999988
PRESSURE
0.941874 0.46079 2.38415 -0.240675 -0.112919 0.041731
PRIMCOORD
320 1
Pb       3.92552      3.89493      4.14819        -0.460259     -0.055173     -0.804070
Pb       3.90677      3.85132     16.59827        -0.057584      0.020166      0.468220
Pb       3.93791     15.59537      4.12569        -0.880998      0.110691     -0.472545
Pb       3.89610      0.01037      0.01208        -0.734154      0.329780      0.674693
Pb       0.01996      3.87428      4.13887         0.297999      0.416465     -0.205949
Pb      15.60122      3.88216     16.60908         0.241978     -0.257287      0.789740
Pb      15.57216     15.60406      4.12789         0.279967      0.010446     -0.417361
Pb      15.59566     15.60358     16.59220         0.521912      0.063333      0.756973
Pb       3.90502      3.86386      8.27044        -0.666189     -0.025975     -0.449922
Pb       3.88972     15.60150      8.34473         0.013385     -0.201089     -0.519347
Pb      15.58696      3.86042      8.29452         0.189874     -0.402223     -0.210478
Pb      15.55161     15.57922      8.26800        -0.183712      0.832396     -0.319207
Pb       3.85774      3.87205     12.41177        -0.227084     -0.071899      0.577209
Pb       3.87242      0.03312     12.42369         0.178418     -0.338070      0.577885
Pb       0.00720      3.89225     12.43035         0.366313     -0.984078      0.337673
Pb      15.53575     15.54666     12.37128         0.416384      0.592190      0.182177
Pb       3.88716      7.84747      4.13111        -0.051450     -0.405913     -0.393907
Pb       3.90365      7.80771     16.59482         0.369016      0.007119      0.061977
Pb       0.00470      7.77502      4.12889        -0.233072     -0.428584     -0.035879
Pb      15.60337      7.83479     16.58156        -0.583812     -0.056764     -0.283115
Pb       3.91357      7.80072      8.32795         0.589445      0.609362      0.675709
Pb      15.60204      7.78801      8.32332        -0.197043     -0.268164     -0.790384
Pb       3.87278      7.75115     12.48218         0.087144      0.429915     -0.428364
Pb      15.59156      7.76681     12.43304        -0.382467     -0.513340      1.162454
Pb       3.85898     11.72603      4.19231         0.364218     -0.213752     -0.482444
Pb       3.83143     11.70973      0.01543         0.251411     -0.404108     -0.192325
Pb       0.01095     11.67438      4.11894        -0.217126      0.166476      0.328690
Pb      15.57089     11.67241     16.57513        -0.422865      0.532244     -0.493325
Pb       3.87462     11.65881      8.26013         0.201828     -0.034065      0.908392
Pb      15.57616     11.67798      8.26579        -0.230759     -0.086079     -0.065725
Pb       3.96263     11.71833     12.43214         0.067718     -0.462306      0.277929
Pb      15.55868     11.68520     12.44091        -0.555687      1.356582      0.849628
Pb       7.83719      3.88741      4.05669         0.129603      0.691792      0.284203
Pb       7.80094      3.89899     16.56318        -0.560083      0.021137      0.734284
Pb       7.85585     15.59244      4.11181        -0.008923     -0.673303      0.903950
Pb       7.75282     15.55417     16.58179         0.380220     -0.403544      0.077255
Pb       7.73407      3.90865      8.21570         0.649577     -0.262878      0.589904
Pb       7.77151     15.59490      8.29108         0.067760      0.164804      0.206589
Pb       7.79414      3.89207     12.42805         0.408953     -0.468820      0.480321
Pb       7.84636      0.03814     12.46206        -0.347118     -1.186670      0.574282
Pb       7.76104      7.80060      4.11955        -0.200622     -0.329635      0.023187
Pb       7.75729      7.80403      0.01045         0.354188     -0.329650     -0.500829
Pb       7.77534      7.81828      8.28245        -0.592993      0.271585     -0.193503
Pb       7.77851      7.83012     12.44064        -0.148371     -0.396909      0.107534
Pb       7.77159     11.70379      4.10362         0.053480      0.085482      0.905413
Pb       7.80938     11.75712     16.59426        -0.082768      0.177204     -0.685829
Pb       7.75491     11.65354      8.22982         0.462691      0.058821      0.104283
Pb       7.79764     11.64060     12.47729         0.288576      0.951310     -0.317746
Pb      11.63470      3.88103      4.09975        -0.198945     -0.404147      0.270222
Pb      11.70007      3.86087     16.58156         0.171442     -0.232132      0.537803
Pb      11.67938     15.57579      4.15290         0.378918     -0.958443     -0.321898
Pb      11.72791     15.59445      0.01540        -0.058110     -0.336428     -0.155035
Pb      11.65615      3.91379      8.32151        -0.011696      0.084021     -0.163981
Pb      11.66825      0.01494      8.25979         0.222210     -0.305106     -0.388377
Pb      11.66701      3.82990     12.42259        -0.284196     -0.333100     -0.141869
Pb      11.66855     15.53816     12.41802        -0.276793      0.223920      0.488150
Pb      11.60396      7.74969      4.13741         0.452930      0.039685     -0.294990
Pb      11.72680      7.79944     16.58607        -0.098351      0.657013      0.434456
Pb      11.71777      7.74958      8.35888        -0.029860      0.776229     -0.732849
Pb      11.66849      7.77487     12.45453         0.163721      0.074137      0.840849
Pb      11.64032     11.64663      4.07198         0.122862      0.569460      1.223197
Pb      11.71872     11.64357     16.54439         0.132008      0.041360      0.033999
Pb      11.63033     11.69082      8.27950        -0.615653     -0.323307     -0.339733
Pb      11.70529     11.66749     12.42941        -0.428296      0.197735     -0.148434
Ti       1.98475      1.94447      2.20863        -0.721035     -0.287468     -0.705073
Ti       1.93150      1.92457     14.71655        -0.670153      0.510376      0.082970
Ti       1.88162     13.62097      2.21292         1.031230      1.186366      0.284153
Ti       2.06043     13.77956     14.57635        -4.586631     -1.550113      1.268502
Ti      13.68152      2.02477      2.21345         0.176063     -1.217975      1.225245
Ti      13.61135      1.90583     14.72322         1.142858      0.592266     -1.341392
Ti      13.68373     13.63620      2.19336        -0.838169     -0.249661      1.406526
Ti      13.70480     13.72512     14.57436         0.120351     -2.215495      0.472846
Ti       1.94994      1.91875      6.40811        -1.283016      0.844574      0.070604
Ti       2.00414     13.62975      6.43583        -1.387697      0.833225     -0.328243
Ti      13.54636      1.98157      6.28704         1.300431     -1.285587      0.679985
Ti      13.65247     13.62688      6.45071        -1.143828     -0.613653     -2.086551
Ti       2.03959      1.93244     10.44125        -3.400667     -0.108924      0.081118
Ti       1.89697     13.60101     10.49243         0.006183      0.786047      3.454472
Ti      13.69644      1.96951     10.53024         0.466299     -1.170642     -0.033225
Ti      13.55097     13.70354     10.49897         0.398358     -0.794822      0.593652
Ti       1.95846      5.86899      2.13922        -0.068353     -1.292996      1.074014
Ti       1.91184      5.87645     14.79916        -0.221692     -1.312886     -0.486670
Ti      13.57192      5.83529      2.20230         0.694103      0.360791      1.974269
Ti      13.63424      5.81236     14.70852         0.539090      0.498016      0.987231
Ti       2.04146      5.89761      6.48147        -2.465737     -1.792905     -1.572092
Ti      13.63425      5.78542      6.33328         0.518943      0.073887     -0.304028
Ti       1.90606      5.89983     10.52562         0.505705     -0.704515     -1.761081
Ti      13.57696      5.86850     10.54544         0.702973     -0.784466      0.158091
Ti       1.94615      9.75452      2.22359         0.073818     -0.566076      1.407629
Ti       1.99213      9.83521     14.69072         0.153757      0.413164      0.973664
Ti      13.61906      9.84626      2.20754        -0.200364     -1.361696      1.045592
Ti      13.62574      9.72842     14.62060        -0.340960      0.125547      1.834479
Ti       1.94851      9.70962      6.43827        -0.599772      0.242119     -0.199394
Ti      13.66338      9.66692      6.34725        -1.621206      0.624311      0.280484
Ti       1.75305      9.81758     10.71283         2.466801     -0.370024     -2.812162
Ti      13.59814      9.69734     10.54753        -1.924458      1.601331     -0.557694
Ti       6.00327      1.83975      2.28562        -4.202478      1.551432     -1.131584
Ti       5.88303      1.80608     14.78897        -0.450078      1.545018     -2.013979
Ti       5.81475     13.69816      2.24757        -0.450313     -1.544232     -0.533787
Ti       5.73754     13.62315     14.78689         2.113727     -1.119275     -0.755408
Ti       5.79561      1.87877      6.31040         1.046436      1.548550      0.011091
Ti       5.78846     13.65750      6.44673         2.021792     -0.956689     -1.452732
Ti       5.66456      1.89721     10.44971         3.755285     -0.150610      1.788950
Ti       5.77040     13.58548     10.63477         1.670117      0.102788     -1.457285
Ti       5.87624      5.78536      2.20938        -0.305023     -0.092226     -0.109780
Ti       5.78416      5.81717     14.66586         1.071533     -0.301343      2.183713
Ti       5.83634      5.77653      6.39730         1.270001      1.058847     -1.129640
Ti       5.88104      5.79385     10.55131         0.668594      1.037539     -0.992907
Ti       5.88969      9.80254      2.08211        -1.295058     -0.437038      1.957372
Ti       5.89403      9.70600     14.66080        -1.374178      0.795722      2.284831
Ti       5.73163      9.80801      6.32683         3.148077     -0.506498      1.123216
Ti       5.79081      9.68104     10.55132        -0.022622      0.415325     -0.362642
Ti       9.74886      1.79843      2.13614         0.801527      2.992007      1.381414
Ti       9.68123      1.90633     14.62034         0.409113     -0.009064      3.307742
Ti       9.72615     13.52502      2.18088         0.481968      1.680481      0.504923
Ti       9.75931     13.67965     14.73407        -0.528163     -0.596806     -1.808997
Ti       9.74782      1.95742      6.36036        -1.609245      0.541141      1.044778
Ti       9.69130     13.73021      6.41179         0.658556     -2.787086      0.146381
Ti       9.72407      1.91698     10.50074        -0.157159     -0.180379      1.229533
Ti       9.72223     13.58530     10.52652        -1.631859     -0.269054      0.065123
Ti       9.75609      5.79127      2.10539        -0.116588      0.346119      3.065019
Ti       9.73586      5.82597     14.77865        -0.185350      0.712059     -0.385041
Ti       9.83564      5.83071      6.29818        -0.986765      0.329789     -0.809539
Ti       9.76997      5.91115     10.49292        -0.574387     -1.963894      1.836805
Ti       9.76440      9.66260      2.23066        -0.031477      0.507847      1.376814
Ti       9.70790      9.73074     14.57860         0.527943     -0.200552      4.087059
Ti       9.71712      9.62964      6.41759         0.554356      2.238429     -0.718900
Ti       9.74268      9.68261     10.52023        -0.643641      1.148986      0.722599
O       1.79868      1.69162      0.41785         0.881038      0.413415     -0.470525
O       1.84144      1.93921     12.90640         0.689639      0.177644      0.927817
O       1.87252     13.89051      0.48690         0.307177     -0.949095     -0.714576
O       1.79098     13.76801     12.88127         0.601425     -0.304429     -1.961956
O      13.51115      2.06133      0.51071         0.351358     -0.811932     -1.816723
O      13.68512      1.83389     12.89527        -0.116395      0.467962      1.428498
O      13.66672     13.54031      0.48538        -0.168789      0.039012     -1.653523
O      13.62042     13.69183     12.77208         0.009044     -0.346435      0.664986
O       1.97570      2.08176      4.65552        -0.090436     -0.748105     -0.443691
O       1.78635     13.48890      4.72970         0.639136      0.705370     -1.875710
O      13.58016      1.99326      4.52622         0.191613     -1.018731     -0.562165
O      13.49684     13.55827      4.52326         0.922502      0.504616      1.825828
O       1.81036      2.00559      8.65704         1.233807     -0.552922      0.551150
O       1.90624     13.54719      8.82292         0.332341      0.195788     -2.584681
O      13.86095      1.85565      8.75365        -1.394089     -0.121063      0.282804
O      13.60780     13.65821      8.71773        -0.152289      0.392715      0.255867
O       2.02665      5.59168      0.37003        -0.219962      1.973445      0.563757
O       1.93356      5.71139     12.99145         0.186435      0.278438     -0.548009
O      13.61610      5.96909      0.48384         0.253505     -0.499892     -0.893712
O      13.65843      6.00349     12.95000         0.163417     -0.953718     -0.299732
O       2.06509      5.91560      4.69533        -0.477703     -0.574878      0.075342
O      13.70846      5.65830      4.55339        -0.249781      0.585522      0.944060
O       1.80578      5.76919      8.64441         0.493985      0.712833      2.411851
O      13.58026      5.78063      8.77688         0.015946      0.288362      1.159256
O       2.08963      9.73930      0.49377        -0.511313     -0.273183     -1.528657
O       2.13483      9.81776     12.93246        -0.793250     -0.377613     -0.776994
O      13.40882      9.75463      0.50360         1.021024     -0.290733     -1.230093
O      13.59570      9.64387     12.89353        -0.086398      0.523973     -1.004038
O       1.91478      9.68332      4.67867         0.291104      0.540964      0.370633
O      13.70087      9.73287      4.57818        -0.481373     -0.045799      0.279203
O       1.85549      9.76957      8.74040        -0.527391      0.129090      1.381770
O      13.53889      9.73894      8.75723         0.940614     -0.627689      0.720232
O       6.08522      1.82332      0.47104        -1.002227     -0.324844     -0.373024
O       5.73734      1.98043     12.98161         0.220752     -0.541222      0.544663
O       5.73978     13.67843      0.40830         0.145779     -0.087049      1.011746
O       5.80614     13.68974     13.03071        -0.522174     -0.273252     -1.056728
O       5.81435      1.98741      4.51743        -0.118813     -0.387962      0.270688
O       5.92018     13.46743      4.62227        -0.717032      0.809036      0.396650
O       5.73410      2.02978      8.70430        -0.097084     -0.550046      0.243090
O       5.84835     13.61604      8.76441        -0.482229      0.399417      0.577418
O       5.80166      5.89505      0.43015         0.179808     -0.273126     -0.128166
O       5.89606      6.03329     12.95335        -0.634120     -0.604202     -1.472578
O       5.94267      5.81578      4.56439        -0.526111     -0.267907      2.055268
O       6.00165      6.04032      8.73307        -0.784257     -1.383527      1.109858
O       5.88341      9.89327      0.34021        -0.137589     -0.844571      0.379682
O       5.88112      9.77334     12.95159        -0.338104     -0.500998     -2.466826
O       5.77201      9.81660      4.60894        -0.183496     -0.270484     -1.061102
O       5.83840      9.54076      8.79125         0.055212      0.880669      0.010179
O       9.75291      1.83210      0.43000        -0.301757     -0.075959     -1.382055
O       9.72695      1.82736     12.95102         0.418818      0.616217     -1.906819
O       9.64402     13.61470      0.40691         0.248941      0.200531     -0.519452
O       9.61622     13.57735     12.90722         0.505259      0.265153      0.902746
O       9.71915      2.01806      4.63317        -0.504134     -0.222183     -1.243945
O       9.73371     13.63001      4.66066        -0.126926      1.013231     -1.104076
O       9.67065      1.90044      8.74429         0.509972     -0.007573     -0.400890
O       9.70405     13.47392      8.69896        -0.230590      1.259684      1.180398
O       9.68854      5.99544      0.42150         0.259680     -0.154312     -2.140279
O       9.68024      5.62300     13.01771         1.140830      0.596563     -0.841712
O       9.65522      5.76103      4.47586         0.493307      0.749777      1.927967
O       9.93047      5.67115      8.81019        -0.161678      0.465000     -0.909426
O       9.72171      9.80837      0.54012        -0.693156      0.052488     -2.077055
O       9.80503      9.66625     12.91766        -0.309048     -0.116335     -2.529414
O       9.77906      9.84554      4.63054        -0.264538     -0.896852     -0.420702
O       9.84431      9.71983      8.82562        -0.743070     -0.195048     -2.076892
O       3.77752      1.94328      2.43817         2.392757     -0.670590      0.616705
O       3.92285      1.82546     14.88403        -1.115738      0.333406      1.005926
O       3.85953     13.75338      2.50227         1.311074     -0.757195      0.580864
O       3.77051     13.62093     14.82296         2.896073     -0.109350      1.073755
O       0.11346      1.79001      2.46657        -2.803615      0.396110      0.890726
O      15.56663      2.03925     15.08282        -0.027532     -1.199537     -0.322749
O       0.05189     13.61487      2.48291        -0.932899     -0.530449      0.606352
O       0.01963     13.31130     14.85972        -1.761148      1.888929      0.209142
O       3.93463      1.95229      6.70133        -0.815137     -0.094063      0.372678
O       3.93091     13.66001      6.68332        -0.718396      0.302067      0.444052
O      15.52022      1.87750      6.79173         0.752374     -0.111605     -1.061903
O       0.02552     13.49895      6.76752        -1.750427      0.810771      0.055247
O       3.90004      1.91369     10.79456        -0.992267      0.465858      0.114821
O       3.89093     13.54858     10.86791        -1.057716      0.582033     -0.012085
O       0.03583      1.93368     10.88319        -0.581556     -0.326123     -0.145964
O      15.52118     13.54342     10.88558         0.249907      0.257031     -0.746742
O       3.85146      5.80628      2.54423         0.112133      0.197221     -0.040034
O       3.85513      5.71546     15.09336         1.064512      0.506691     -0.799104
O       0.04118      5.83516      2.62098        -0.562192     -0.138476     -0.500898
O      15.60520      5.75797     15.07496        -0.539906      0.974455      0.001064
O       3.81246      5.91650      6.80192         3.460710     -0.878831      0.036044
O      15.45291      5.75963      6.84417         0.828560      0.893306     -0.581413
O       3.78950      5.78961     10.83372         1.218067     -0.279001      0.058041
O       0.08602      5.64279     10.87021        -1.298635      1.532975     -0.153997
O       3.81931      9.75703      2.61430         1.505829     -0.880393     -0.226204
O       3.98114      9.81459     15.07281        -2.232794     -0.676975     -0.106559
O      15.58610      9.83525      2.54711         0.080062     -0.591259     -0.344675
O      15.55295      9.67839     15.02521         1.021023      0.042029     -0.076038
O       4.00705      9.75930      6.88445        -3.353261     -0.041893     -0.642675
O      15.56605      9.72478      6.65241         0.336360      0.025087      0.406976
O       3.91899      9.79512     10.78114        -0.645116      0.007491      0.690961
O      15.44741      9.73172     11.08406         2.060335     -0.053272     -1.080685
O       7.67994      2.00817      2.53078         4.176133     -0.385042      0.521229
O       7.82472      2.04802     15.01703         0.022112     -0.930075     -0.294470
O       7.82120     13.73041      2.60777        -0.805730     -0.581259     -0.456534
O       7.72545     13.59120     14.97400        -0.120754      0.239536      0.832614
O       7.76236      1.90815      6.91450        -0.065380      0.787369     -1.077141
O       7.71524     13.36752      6.66319         0.394979      1.939399      0.237960
O       7.87393      1.77870     11.08572        -0.869151      1.257492     -1.800064
O       7.68398     13.61903     10.96885         0.579355      0.087238     -0.439282
O       7.83285      5.68170      2.46755        -1.385595      1.250493     -0.070719
O       7.89640      5.97935     14.86010        -2.150782     -0.366124      1.033520
O       7.89336      5.67713      6.71023        -0.961055      0.986221     -0.224409
O       7.82583      5.74411     10.87247        -0.541742      0.803006     -0.276018
O       7.67935      9.60332      2.62463         0.945079      0.528401     -0.673059
O       7.69093      9.64833     14.93659         2.715898      0.472634      0.165215
O       7.80006      9.78062      6.66015        -0.250412     -0.248981      0.346862
O       7.76911      9.69686     10.73726         0.140162     -0.312608      0.925782
O      11.61394      2.20143      2.33600        -0.360813     -1.825189      0.790130
O      11.75130      2.00178     14.97194        -1.326652     -0.272070      0.197417
O      11.62021     13.62140      2.57962         0.354357      0.874980     -0.478170
O      11.73525     13.66729     14.91879        -0.577960     -0.019457      0.355129
O      11.55826      1.91869      6.54844         2.032891     -0.587644      1.018611
O      11.66378     13.57052      6.70177         0.412722      2.158729      0.389459
O      11.68957      1.78633     10.92832        -0.335155      0.887450     -0.583195
O      11.52001     13.59051     10.90815         2.230160      0.277590     -0.402435
O      11.67657      5.66272      2.71938         0.339238      1.252739     -1.416718
O      11.84094      5.96876     15.16754        -1.585757     -1.363665     -0.955631
O      11.74037      5.94351      6.80846        -0.009378     -0.842484     -0.679979
O      11.76905      5.89577     10.96413        -0.805692     -0.566917     -0.356678
O      11.60570      9.79171      2.39098         1.019563     -0.053254      1.191634
O      11.72615      9.70344     14.98177        -1.623121      0.479194     -0.244285
O      11.56397      9.62017      6.76869         1.872916      0.186868     -0.127697
O      11.60644      9.82364     10.74407         2.003055     -1.264072      1.186706
O       1.90506      3.86406      2.40897         0.040783      0.622641      0.629569
O       1.82785      3.88800     15.22630         1.143772     -1.412785     -1.388277
O       2.03804     15.55620      2.62399        -0.601425     -0.454426      0.810089
O       1.81829     15.55221     15.06051         0.255924      1.259774     -0.713327
O      13.51666      3.76646      2.65532         1.605550      1.937992     -0.661124
O      13.72834      3.81601     15.20036        -1.067403      1.174221     -1.378690
O      13.73639     15.47032      2.34567        -0.670234      1.959670      0.941692
O      13.59308     15.49149     15.08714         0.517775      1.596088     -0.234360
O       1.92879      3.87537      6.64809         0.278998      0.064258      0.684164
O       1.86983     15.58722      6.67892         0.660169     -0.092826      0.414202
O      13.71508      3.74423      6.58042        -0.974042      2.175420      0.737206
O      13.61434     15.59472      6.61018        -0.215045     -0.610952      0.366080
O       1.89327      3.75598     10.78968         0.896384      1.502477      0.324757
O       1.93500     15.59736     10.85034         0.382515     -0.485223     -0.709265
O      13.55594      3.77811     10.79985        -0.051216      2.337957      0.457063
O      13.54844     15.60655     10.92181         0.405704     -1.308154     -0.946431
O       1.85846      7.78501      2.74309         0.578688      0.135483     -1.440772
O       1.92363      7.76124     14.98084         0.276003      0.660254      0.309976
O      13.54179      7.69376      2.57948         0.153608      0.630736      0.127380
O      13.55042      7.83622     15.04754         1.314312     -0.556761      0.023105
O       2.00873      7.77039      6.60247        -0.690630      1.754026      1.046253
O      13.56780      7.74770      6.76345         0.766027      0.615006     -0.346040
O       2.10142      7.94272     10.79827        -1.286575     -2.043075      0.435467
O      13.64589      7.80274     11.09951         0.272217     -0.773944     -1.789723
O       2.15918     11.60318      2.59058        -1.340101      1.726614     -0.273142
O       1.77747     11.72791     15.00798         1.783198     -1.551825      0.002051
O      13.62546     11.65252      2.47298         0.061067      0.629599      0.382523
O      13.59599     11.65083     15.19708         0.247059     -0.002019     -1.355575
O       1.84501     11.81187      6.64249         1.100082     -3.256277      1.015367
O      13.35714     11.68586      6.75310         1.993779     -0.679974     -0.538303
O       2.00864     11.65667     10.87472        -0.909914      0.438487      0.174258
O      13.52902     11.65983     10.84810         0.476694      0.285966      0.084903
O       5.71698      3.77974      2.49033         0.335592      0.847805      0.110905
O       5.95411      3.82041     15.07351        -0.800099      1.322290     -0.368345
O       5.88605     15.49984      2.64946        -0.231496      1.139300     -0.123739
O       5.80529     15.51981     15.07495         0.177311      0.797202      0.040616
O       5.94037      3.83117      6.72429        -1.240122      1.814889     -0.191593
O       5.86028      0.10592      6.58847        -0.049085     -2.844908      0.709734
O       5.97776      3.83977     10.95663        -1.406002      0.578565     -0.982121
O       5.72310      0.02796     10.88535        -0.020773     -0.121807     -0.541112
O       5.80551      7.65791      2.62696         0.189849      1.109025     -0.544384
O       5.85401      7.77604     15.12459        -0.797399     -0.545048     -0.461066
O       5.88453      7.87200      6.82387        -0.115295     -1.683607     -1.149210
O       5.77411      7.76506     10.81796         0.099957     -1.086260      0.904403
O       5.81840     11.62779      2.52418         0.075615      1.010655     -0.316634
O       5.75508     11.65557     15.10938         0.264212      0.932439     -0.396623
O       5.84180     11.71126      6.70357        -0.924970     -0.382928      0.443994
O       5.82287     11.68497     10.94830         0.134781      0.052858     -0.224119
O       9.64955      4.02122      2.51548         0.271428     -2.702983     -0.411457
O       9.65705      3.98577     15.25369         1.276215     -1.375239     -1.062863
O       9.62611      0.06489      2.60561         0.706188     -1.264643     -0.169142
O       9.61486     15.60252     15.03279         0.662543      0.620246     -0.151097
O       9.97374      4.02885      6.71174        -0.790263     -1.832026      0.024751
O       9.53699      0.05496      6.68496         0.731042     -0.601097      0.111711
O       9.71662      3.82648     10.90336         0.796629      0.169940     -0.123899
O       9.72054     15.55346     11.02610         0.076797     -0.503935     -1.335860
O       9.86946      7.79876      2.54896        -0.769634     -0.425262      0.089549
O       9.70703      7.81158     15.07545         0.408468      0.983350     -0.518977
O       9.82260      7.77271      6.77401        -0.860974     -1.089594     -0.361897
O       9.74027      7.71665     10.86024         0.031676      0.374608      0.107176
O       9.80141     11.79337      2.57483        -1.186485     -2.110323     -0.247610
O       9.64411     11.79336     14.89177         0.210896     -2.319653      0.568561
O       9.86877     11.81717      6.58654        -0.691151     -1.599519      0.884678
O       9.75682     11.58360     10.86671        -0.676459      1.275217      0.419844
