  # total energy = -7882.90763138 
CRSYTAL
PRIMVEC
    15.464    0.0000000000000000    0.0000000000000000
     0.0000000000000000   15.464    0.0000000000000000
     0.0000000000000000    0.0000000000000000   17.350608
PRESSURE
-2.07078 -2.0659 -2.96079 -0.179681 -0.082198 -0.008245
PRIMCOORD
320 1
Pb       3.76526      3.90293      4.23427         0.359625     -0.333920      0.033686
Pb       3.68542      3.85621      0.08580         0.200855     -0.463150     -0.306770
Pb       3.90098     15.33467      4.31119        -0.466797      0.254615     -0.110936
Pb       3.69882     15.41716      0.03803         0.150847      0.187868     -0.028543
Pb      15.29899      3.84748      4.26607         0.583224     -0.002296     -0.172126
Pb       0.04810      3.99744     17.28867        -0.109849     -0.772112     -0.267964
Pb      15.45831      0.00736      4.36949         0.128554     -0.118996     -0.514026
Pb       0.03263      0.01551     17.30207        -0.263062     -0.126847      0.028122
Pb       3.89946      3.83313      8.68561         0.199874     -0.162319     -0.749239
Pb       3.80124      0.07947      8.59438         0.531076     -0.690768     -0.310165
Pb       0.10481      3.97019      8.75756        -0.290255     -0.242383     -0.545559
Pb       0.05864      0.02014      8.66095        -0.177194     -0.432706     -0.379129
Pb       3.93580      3.91508     13.09717        -0.058478     -0.568754     -0.761326
Pb       3.79548      0.06860     13.01356         0.100856     -0.219984     -0.826214
Pb       0.00138      3.81811     13.04193        -0.082484     -0.247890     -0.478533
Pb       0.00819     15.36334     13.07472        -0.289980      0.103383     -0.560377
Pb       3.92024      7.70506      4.38384        -0.059447      0.321558     -0.661938
Pb       4.00588      7.79308     17.16797        -0.480911     -0.114594      0.576611
Pb       0.13011      7.74801      4.40665        -0.570806     -0.103130     -0.469426
Pb       0.02319      7.68591     17.26660         0.015181      0.520411     -0.445110
Pb       3.76342      7.66546      8.63842         0.341537      0.075475     -0.170839
Pb      15.24897      7.78370      8.57338         0.469111     -0.173725      0.506216
Pb       3.80659      7.71464     12.98566         0.079758      0.572943     -0.020954
Pb      15.43755      7.55692     13.06628        -0.006333      0.250406     -0.876205
Pb       3.80490     11.50523      4.29874        -0.121616     -0.104871     -0.344715
Pb       3.78401     11.58244     17.28504         0.588524      0.033925     -0.085492
Pb       0.04026     11.57946      4.28829        -0.514130     -0.057398     -0.705393
Pb      15.45958     11.56391     17.32987        -0.416003      0.051830     -0.297375
Pb       3.81800     11.51923      8.61336         0.300555      0.130981     -0.333321
Pb       0.07702     11.63924      8.72850        -0.616384     -0.332071     -0.372362
Pb       3.84316     11.64136     12.93841         0.423853     -0.647996     -0.488951
Pb       0.01003     11.47908     13.24060        -0.468934      0.179748     -1.138253
Pb       7.77712      3.89362      4.20318        -0.105575      0.206177      0.373202
Pb       7.69543      3.84237     17.32530        -0.121625      0.228598     -0.370418
Pb       7.60223      0.02727      4.30683         0.568837     -0.699296      0.024242
Pb       7.77189      0.02690     17.32713        -0.254603     -0.569147     -0.071815
Pb       7.73975      3.80707      8.67588         0.145081      0.400987     -0.487542
Pb       7.75882     15.33706      8.57327        -0.557403     -0.021547      0.186240
Pb       7.74396      3.90991     13.02783        -0.180361     -0.329526     -0.762384
Pb       7.59134     15.36092     12.93457         0.417015     -0.021898     -0.914480
Pb       7.71285      7.65943      4.32050         0.073325     -0.246239     -0.407690
Pb       7.64786      7.69360     17.23406        -0.029798      0.090853      0.105981
Pb       7.74545      7.73656      8.64057         0.113003     -0.228521     -0.245362
Pb       7.76427      7.70691     12.91784        -0.088548     -0.154727      0.054688
Pb       7.69622     11.57984      4.27462         0.004786      0.272696     -0.268188
Pb       7.74687     11.68284      0.00046        -0.321902     -0.291854     -0.576029
Pb       7.75954     11.54641      8.65721        -0.203797     -0.031442      0.042223
Pb       7.74846     11.67076     13.05642        -0.232087      0.158836     -0.972472
Pb      11.72793      3.86461      4.13346        -0.576516      0.186682      0.765192
Pb      11.59099      3.80126     17.24815        -0.181631      0.332536     -0.143497
Pb      11.51522      0.08289      4.28324         0.153790     -0.389310     -0.269010
Pb      11.59258      0.02522     17.24777         0.090315     -0.523915      0.112011
Pb      11.40579      3.79538      8.49567         0.928971      0.308570      0.600407
Pb      11.63944      0.03183      8.66587         0.135861     -0.124071     -0.781989
Pb      11.52675      3.85906     12.92863         0.123924     -0.712530      0.020491
Pb      11.56296     15.43510     12.98651         0.264935      0.167372     -0.515890
Pb      11.48730      7.77327      4.38732         0.056468     -0.313082     -0.400677
Pb      11.48926      7.73350      0.01578         0.048664     -0.208489     -0.193241
Pb      11.62069      7.76296      8.52047        -0.357027     -0.160679     -0.013608
Pb      11.60619      7.73337     12.92129         0.077348     -0.402474     -0.113002
Pb      11.54952     11.65710      4.25714         0.228443     -0.211746     -0.593102
Pb      11.59528     11.52320      0.01945         0.238775      0.249019     -0.291801
Pb      11.73635     11.64912      8.71792        -0.087236     -0.278777     -0.542091
Pb      11.47330     11.52834     13.18891         0.381094      0.552973     -0.911195
Ti       1.90705      1.95206      2.40917        -0.171961     -0.943465     -0.757417
Ti       1.95053      1.87131     15.35780        -0.624969      0.694385     -0.230141
Ti       1.83908     13.48059      2.31149        -0.014590      0.698124      0.431087
Ti       1.90186     13.51048     15.26772        -0.614956     -0.208542      1.601951
Ti      13.48779      1.87177      2.25418         0.872269     -0.347931      1.037622
Ti      13.47007      1.94610     15.38184         1.359738     -0.551203     -1.789143
Ti      13.51938     13.52110      2.23320        -0.065984     -0.820573      0.166914
Ti      13.52741     13.55347     15.33950         0.312540     -0.230164      0.259845
Ti       1.95093      1.86699      6.58038         0.320233      0.086292     -0.068220
Ti       1.85481     13.44518      6.59832         0.595847      0.430257      0.286446
Ti      13.61802      1.86021      6.61501        -0.829437     -0.125352      0.125679
Ti      13.49078     13.48205      6.52484        -0.335855     -0.078842      1.676476
Ti       1.94498      1.88860     10.92927         0.042299      0.246514      0.270882
Ti       1.97713     13.46429     10.88230        -0.759705      0.682794      0.315669
Ti      13.57687      1.84054     10.87482        -0.416152     -0.025625     -0.578762
Ti      13.52230     13.48148     11.01393         0.579267     -0.525957      0.400086
Ti       1.80030      5.86335      2.24638         0.864143     -0.808383      1.175691
Ti       2.00226      5.86283     15.26751        -1.006183     -0.216175      0.180863
Ti      13.48294      5.79927      2.15919         0.614614      0.142854      0.589456
Ti      13.51269      5.78583     15.30893        -0.320769     -0.250540     -0.047545
Ti       1.89266      5.74243      6.53886        -0.401908     -0.285516      0.976276
Ti      13.56150      5.65690      6.61446        -0.588854      0.180990     -0.135100
Ti       2.00649      5.77589     10.96027        -1.314756     -0.165506      2.363446
Ti      13.52947      5.62214     10.97066        -0.151457      1.259602     -0.548510
Ti       1.80931      9.58626      2.20071         0.953865      0.447230      0.965226
Ti       1.93184      9.68355     15.26636        -0.615044     -0.550067     -0.062325
Ti      13.43670      9.54866      2.27217         0.221434      1.287361      0.094709
Ti      13.45689      9.59495     15.33701         1.337785      0.763766      0.977441
Ti       1.94806      9.58296      6.63814        -0.429402      0.233824      0.208721
Ti      13.58041      9.64507      6.55509        -0.511118      0.329443      0.475621
Ti       1.94084      9.62487     10.93544        -0.231512      0.218841     -0.370952
Ti      13.51534      9.68958     11.11777         0.577230      0.018404     -1.159617
Ti       5.85592      1.88749      2.32470        -1.249106     -0.050887     -0.109193
Ti       5.74903      1.80059     15.28915        -0.204279      0.700926      1.428418
Ti       5.73515     13.44527      2.33290         0.308518     -0.036927     -0.047353
Ti       5.73297     13.48821     15.22421         0.641983     -0.899518      0.521636
Ti       5.86491      1.88244      6.66626        -0.932192      0.061377     -0.275743
Ti       5.77298     13.43313      6.60846        -0.798192      0.510611      0.170595
Ti       5.72620      1.92124     10.90048         0.480465     -0.290485      0.657124
Ti       5.72375     13.46343     10.88530         0.909221      0.152010      0.264075
Ti       5.67503      5.77229      2.28552         1.178188      0.328627     -0.965234
Ti       5.76189      5.66850     15.30239         0.707545      0.725685     -0.665042
Ti       5.76236      5.79606      6.69816         0.396518     -0.764122     -0.222213
Ti       5.78475      5.77103     11.01778         0.495496     -0.621290     -0.921295
Ti       5.69774      9.60725      2.32817        -0.152078      0.144671      0.209739
Ti       5.79161      9.66129     15.21770         0.237811      0.035748     -0.267750
Ti       5.78740      9.58862      6.62686        -0.426967      0.513006     -0.469176
Ti       5.86677      9.48181     10.90462        -0.876083      1.986193      0.684420
Ti       9.64983      1.88037      2.22164         0.418952     -0.286513      0.922270
Ti       9.57157      1.83393     15.23150         0.682331      0.635838      0.127237
Ti       9.62132     13.48004      2.23513        -0.289061      0.366201      0.693319
Ti       9.68659     13.47890     15.30681        -0.328311     -0.385734     -0.337635
Ti       9.63750      1.79845      6.54739         0.578129      0.517884      0.292269
Ti       9.63147     13.45484      6.65710         0.563655     -0.060979      0.169759
Ti       9.58394      1.90040     10.89932         0.169642      0.400552      1.259999
Ti       9.72331     13.55278     10.89450        -0.480417     -0.415165      1.287728
Ti       9.68439      5.74848      2.26249        -0.405277      0.549100     -0.181672
Ti       9.65261      5.70456     15.30633         0.055251      0.372318      0.438231
Ti       9.62015      5.74664      6.62274         0.247901      0.786226     -0.877990
Ti       9.65796      5.79813     11.02621        -0.233384     -0.512666     -0.137938
Ti       9.55363      9.59692      2.25408         0.745036      0.179539     -0.233197
Ti       9.66404      9.58191     15.29866        -0.400681      0.972336     -0.198993
Ti       9.62833      9.68830      6.56629         0.563472     -0.619390      1.191844
Ti       9.68147      9.71246     10.95447        -0.392858      0.303834     -0.773166
O       1.98742      1.89263      0.57908        -0.006575     -0.054146      0.503222
O       2.08176      1.80479     13.58576        -0.452766      0.340235      0.229673
O       1.71818     13.63577      0.55832         0.793437     -0.204385     -0.568277
O       1.87693     13.50802     13.56163         0.034011     -0.149675     -1.483525
O      13.43418      1.92419      0.52760        -0.014174     -0.213111     -0.901151
O      13.68231      1.76464     13.59430        -0.442598      0.554830      0.854788
O      13.54049     13.58292      0.45485        -0.052065     -0.201601      0.349453
O      13.66301     13.56999     13.56891        -0.348823      0.034397      0.191966
O       1.84226      1.73969      4.80846         0.360384      0.758086      0.386503
O       1.78942     13.50699      4.84503         0.067958     -0.291700     -0.329991
O      13.57677      1.78819      4.78921        -0.227798      0.373066      0.983825
O      13.45676     13.36725      4.78170        -0.051048      0.374874      0.273312
O       2.03042      2.01417      9.11439        -0.221364     -0.521247      1.088011
O       1.97565     13.60770      9.07992        -0.236915     -0.577019      0.921385
O      13.52532      1.88738      9.02448         0.263496     -0.278188      1.991298
O      13.53261     13.25458      9.24648        -0.058248      0.673662      0.278098
O       2.00744      5.75261      0.51349        -0.277827      0.349257     -1.126616
O       1.92595      5.83793     13.50442        -0.101771     -0.316027     -0.065860
O      13.47703      5.72433      0.41043        -0.065626      0.241026     -0.187960
O      13.48620      5.78160     13.52166         0.343193     -0.331970      0.594941
O       1.67989      5.68237      4.80135         0.710927      0.236082     -0.169385
O      13.64842      5.68387      4.83232        -0.235212      0.005812      0.459751
O       1.94017      5.71294      9.25835        -0.104775      0.043814     -1.223009
O      13.46791      5.66098      9.17369         0.309646     -0.010967      0.719085
O       1.87058      9.43759      0.45015         0.278089      0.482485      0.098816
O       1.88773      9.64723     13.49571        -0.152955      0.434045      0.001339
O      13.36848      9.72225      0.48861         0.283625     -0.502789      0.515663
O      13.55106      9.77313     13.58215        -0.177289     -0.485566     -0.431085
O       1.79454      9.55818      4.83483         0.452168      0.135944      1.013612
O      13.64518      9.56369      4.79710        -0.265874      0.190237      0.256415
O       1.96426      9.62884      9.09886        -0.043201     -0.239280      1.426272
O      13.55532      9.72411      9.32259        -0.240296     -0.091204      0.633731
O       5.76942      1.80182      0.56951         0.269610      0.302003      0.475939
O       5.66249      1.95097     13.56495         0.205795     -0.132404      0.348406
O       5.79864     13.38801      0.57036        -0.299179      0.251162      0.087323
O       5.80854     13.31947     13.43365        -0.151832      0.623820      1.591648
O       5.97497      1.75572      4.90064        -0.503360      0.483945     -0.513907
O       5.89953     13.58408      4.79589        -0.486724     -0.578630      1.278152
O       5.57531      1.85795      9.12640         0.619679      0.552649      0.266407
O       5.74640     13.54415      9.10013        -0.042706     -0.283008      0.594556
O       5.82297      5.80724      0.46169        -0.579448     -0.008649      1.032705
O       5.86027      5.70814     13.46206        -0.261350     -0.081259      1.382642
O       5.75089      5.73247      4.92839         0.076314      0.341499      0.202268
O       5.68972      5.89048      9.22950         0.256881     -0.554688      0.118448
O       5.66766      9.61365      0.55169        -0.046364     -0.167666      0.537693
O       5.76171      9.69314     13.43266         0.293186     -0.103522      1.231152
O       5.61317      9.63296      4.80813         0.259015     -0.376865      0.870845
O       5.84503      9.59635      9.12191        -0.152189     -0.195030      1.115271
O       9.63226      1.86874      0.46056         0.070416      0.131967      0.087837
O       9.58236      1.92765     13.46447        -0.131030     -0.279295      1.051575
O       9.54306     13.49664      0.47020         0.036072     -0.058330      0.142506
O       9.59825     13.45208     13.49641         0.207864      0.200248      1.391146
O       9.67881      1.78955      4.75990         0.008049      0.231426      1.201470
O       9.54414     13.37958      4.89334         0.411007      0.176380      0.200651
O       9.58522      2.00220      9.10445         0.061715     -0.439202      1.173014
O       9.67498     13.56002      9.11687        -0.179343      0.015940      0.753612
O       9.82254      5.74044      0.46414        -0.612916      0.043074      0.830055
O       9.62151      5.78549     13.53631        -0.151251     -0.301010      0.307311
O       9.62110      5.85638      4.81252        -0.061014     -0.199891      0.531581
O       9.62066      5.67825      9.29835         0.061498      0.338369     -0.903993
O       9.72782      9.62170      0.44412        -0.205829     -0.073725      0.982992
O       9.89464      9.71994     13.49041        -1.030792     -0.396214      1.220680
O       9.72111      9.48695      4.79997        -0.409160      0.495590      0.615720
O       9.56320      9.74144      9.13187         0.239088     -0.387121      1.563788
O       3.88862      1.97426      2.72238         0.323358      0.169931      0.179690
O       3.84530      1.93221     15.86777         0.565180     -0.663845     -0.429022
O       3.73382     13.33899      2.72377         1.417134      0.985975     -0.042652
O       3.75336     13.49484     15.68947         1.649886      0.144034      0.143535
O      15.43181      1.78138      2.78697        -0.350523      0.282642     -0.729683
O       0.02184      1.96359     15.76711         0.013449     -0.146047     -0.027745
O      15.43007     13.47306      2.65658        -0.355186      0.309444      0.294690
O      15.44363     13.54680     15.68909         0.074459     -0.140841      0.153242
O       3.92674      1.96681      6.97358        -1.511328     -0.181376     -0.201773
O       3.79046     13.44034      6.89279         0.821679     -0.313700     -0.105989
O       0.05581      1.71863      7.04959        -0.424523      0.481084     -0.416400
O      15.35125     13.53773      7.04525         0.640499     -0.104394     -0.143780
O       3.90715      2.05344     11.50190        -1.386303     -0.352300     -0.527340
O       3.87576     13.50379     11.47865        -0.676364     -0.049053     -0.686182
O       0.00607      1.77796     11.30752         0.118787     -0.254196     -0.338127
O       0.01150     13.50809     11.35450         0.300111      0.161538     -0.200885
O       3.81476      5.66134      2.67579        -0.227411      0.400223      0.093279
O       3.87156      5.95962     15.54518        -0.007956     -0.721206      0.214389
O      15.45212      5.84110      2.57507        -1.086648     -0.296130     -0.186280
O       0.01886      5.76534     15.69859        -0.163424      0.069477     -0.146426
O       3.82753      5.80287      6.99959        -0.414142     -0.280452     -0.121474
O      15.41794      5.81563      7.03810         0.145148     -0.236466      0.275462
O       3.86100      5.72099     11.32823        -0.657905      0.060571      0.383019
O      15.41765      5.80190     11.39508         0.655750     -0.431726      0.020282
O       3.75954      9.61165      2.76685         0.493483     -0.112456     -0.329319
O       3.81312      9.58421     15.59492         0.797888      0.049817      0.261302
O      15.46148      9.62056      2.60689        -0.887994     -0.145006     -0.018063
O       0.03047      9.64362     15.77075        -1.016689      0.283622     -0.235378
O       3.87162      9.63340      7.14311        -0.891498     -0.417135     -0.678684
O       0.00980      9.62259      7.09511        -0.449557     -0.195264     -0.383294
O       3.85689      9.59519     11.47284         0.220171      0.246470     -0.895013
O       0.01487      9.71942     11.33362        -0.318966     -0.126960      0.379109
O       7.81556      1.86988      2.65398        -1.571302      0.569316     -0.143066
O       7.71524      1.94054     15.75070        -0.743406     -0.324926     -0.361446
O       7.66613     13.41939      2.76244         0.138064      0.232623     -0.567594
O       7.68388     13.46005     15.68444        -0.298223     -0.310876     -0.189546
O       7.74695      1.92098      6.96397         0.549456     -0.376043      0.449262
O       7.72697     13.46114      7.11511        -0.487901      0.247048     -0.404391
O       7.64365      1.86161     11.39197         0.549951      0.022314     -0.517191
O       7.70939     13.49513     11.41974        -0.177282      0.700996     -0.477915
O       7.69250      5.86776      2.64142         0.824209     -0.450172      0.028771
O       7.70300      5.76756     15.80841         0.370657     -0.273972     -0.490869
O       7.75778      5.83073      7.05291        -1.280563     -0.358496      0.179705
O       7.69779      5.83146     11.36750         0.088928      0.070367      0.273709
O       7.67484      9.50621      2.64420        -0.023932      0.353599     -0.037647
O       7.71403      9.72914     15.72079         0.141305     -0.299508     -0.559333
O       7.64470      9.62224      6.91178         1.175312      0.169118      0.029453
O       7.74254      9.57280     11.33565        -0.140520     -0.071829     -0.002442
O      11.58321      1.96274      2.72729         0.189961     -0.534548     -0.435723
O      11.54522      1.93787     15.61241        -0.340233     -0.240217      0.198906
O      11.48516     13.42792      2.58272         0.247050     -0.006971      0.200339
O      11.61574     13.52771     15.69683        -0.680761      0.119050     -0.174685
O      11.58265      1.93621      7.02921        -0.472253     -0.281304     -0.511799
O      11.56736     13.56899      7.13353         0.393184     -0.749932     -0.628619
O      11.55569      1.99834     11.40225        -0.263613     -0.374239     -0.612352
O      11.59817     13.51552     11.42792        -0.943584      0.083477     -0.352914
O      11.63301      5.78740      2.68971        -0.218489     -0.335158     -0.175665
O      11.55957      5.79911     15.68931        -0.028781     -0.150073     -0.186846
O      11.54613      5.83457      6.92067         0.563267     -0.393317      0.284678
O      11.56110      5.59952     11.43934         0.539604      0.433308     -0.315399
O      11.52562      9.65115      2.74509         0.506700     -0.029398     -0.301310
O      11.62276      9.58332     15.75598        -0.655238      0.278857     -0.340132
O      11.57827      9.69147      7.01042        -0.162139     -0.562090     -0.400278
O      11.51748      9.64696     11.41567         0.865278      0.060354     -0.259175
O       1.78869      3.85079      2.62607         0.391691     -0.009708      0.365757
O       1.93966      3.84132     15.73016         0.474973      0.690058     -0.086605
O       1.96863      0.00081      2.72793         0.118741     -0.492544     -0.047117
O       1.85799     15.41007     15.65123         0.485358      0.640873      0.488603
O      13.60161      3.81756      2.54946        -0.344382      0.226228      0.385887
O      13.54052      3.85900     15.73544        -0.290420      0.154193     -0.122761
O      13.44513     15.35198      2.67344        -0.226982      1.093414     -0.037096
O      13.45498      0.03048     15.72951         0.275573     -0.165911      0.251389
O       1.78539      3.83412      6.98701         0.428915     -0.050169     -0.129847
O       1.99146     15.36834      6.93559        -0.288905      0.922892      0.314821
O      13.55691      3.76529      6.97909         0.216985      0.447256     -0.352784
O      13.42110     15.42099      7.01480         0.331324     -0.113883     -0.155914
O       1.75213      3.76794     11.39616         0.641479      0.602870     -0.237559
O       2.01397     15.41882     11.35952         0.185649      0.550491     -0.229480
O      13.65648      3.69648     11.38492        -0.253728      0.710615      0.055608
O      13.37477     15.39460     11.34583         0.487349      0.913356     -0.268255
O       1.88108      7.68491      2.77001         0.369414      0.209150     -0.314924
O       1.81326      7.76867     15.56511         0.320184     -1.146372      0.307983
O      13.51213      7.68192      2.54565        -0.175718      0.266455     -0.063688
O      13.54999      7.68633     15.66145         0.031007      0.297909      0.026577
O       1.85267      7.63201      6.95728         0.330572      0.584920      0.017004
O      13.46057      7.70985      7.03477         0.311974      0.145739     -0.103922
O       1.96353      7.74359     11.48441        -0.306285     -0.813614     -0.805508
O      13.53624      7.59459     11.33566        -0.580705      1.139493      0.371501
O       1.87943     11.56850      2.61278        -0.226764     -0.891326      0.016729
O       1.95378     11.58032     15.70651        -0.470739     -0.003159      0.017381
O      13.54420     11.60099      2.69205        -0.371647     -0.711232     -0.125498
O      13.56113     11.60655     15.79216        -0.286640     -0.421108     -0.397800
O       1.86256     11.49606      6.97741         0.114256      0.467476      0.023593
O      13.50330     11.52037      7.06615         0.106397      0.473205     -0.575806
O       1.94153     11.59551     11.19136         0.352214     -0.246303      0.234371
O      13.37487     11.62714     11.55551         0.624818     -1.088670     -0.218609
O       5.86473      3.94184      2.77625        -0.129642     -1.532637     -0.384862
O       5.73284      3.85219     15.76089         0.048640     -0.490020     -0.295003
O       5.77977     15.39977      2.72953        -0.158606      0.566511     -0.350486
O       5.82249     15.34758     15.61898        -0.375419      0.743439     -0.170016
O       5.77935      3.80126      7.06312         0.299014      0.856586      0.178697
O       5.71482     15.39129      7.06560         0.585667     -0.131109     -0.278902
O       5.76828      3.86323     11.41302         0.350409     -0.058121     -0.251868
O       5.65649      0.03712     11.25974         0.353231     -0.495401      0.500641
O       5.75466      7.66876      2.82268        -0.664023      0.139201     -0.389361
O       5.83100      7.68550     15.68720         0.176191      0.653323     -0.249179
O       5.75202      7.71409      7.10859        -0.042056     -0.360532     -0.459497
O       5.77630      7.65226     11.40102        -0.096837      0.853164     -0.025191
O       5.72001     11.56149      2.77104         0.218327     -0.855289     -0.138805
O       5.70354     11.50246     15.80552        -0.152306      0.811663     -0.582013
O       5.72716     11.50229      7.04716         0.306310      0.869315     -0.312423
O       5.80553     11.63016     11.30636        -0.192247     -1.142061     -0.331734
O       9.70457      3.84404      2.74569        -0.267631      0.166091     -0.644619
O       9.62812      3.79795     15.69146        -0.112284      0.273913     -0.220007
O       9.58710     15.45090      2.67387         0.563790     -0.458399     -0.435107
O       9.58783     15.36453     15.80236         0.231660      1.055893     -0.795686
O       9.59821      3.87973      7.06830        -0.219650     -0.783652     -0.576367
O       9.71881     15.40361      7.06260        -0.622716      0.709077     -0.420802
O       9.47402      3.86768     11.35908         0.402554     -1.096843      0.223012
O       9.63701     15.41026     11.49031        -0.052989      0.828193     -0.939589
O       9.71833      7.67814      2.68670        -0.071375      0.074588     -0.291471
O       9.59689      7.75560     15.63023         0.137628     -0.768987      0.129992
O       9.55846      7.68912      7.11314         0.697719      0.921053     -0.355512
O       9.70579      7.68883     11.45083        -0.055403      0.595424     -0.361747
O       9.52889     11.53838      2.68808         0.198885     -0.356673     -0.266479
O       9.71570     11.59288     15.71511        -0.005525     -0.356730     -0.119785
O       9.63976     11.57380      7.11474        -0.189065     -0.442310     -0.781330
O       9.57413     11.65910     11.39806         0.430906     -1.058218     -0.420263
