  # total energy = -7883.29251385 
CRSYTAL
PRIMVEC
    15.464    0.0000000000000000    0.0000000000000000
     0.0000000000000000   15.464    0.0000000000000000
     0.0000000000000000    0.0000000000000000   17.350608
PRESSURE
-1.73733 -1.6968 -0.916651 -0.199815 0.061651 -0.030259
PRIMCOORD
320 1
Pb       3.92617      3.83256      4.35438        -0.422223      0.248653     -0.109946
Pb       3.92386      3.80333     17.24047        -0.073993      0.151049      0.041901
Pb       3.83382      0.06992      4.28256         0.017759     -0.124741     -0.240805
Pb       3.91860      0.03568     17.29365        -0.222818     -0.244576      0.096599
Pb       0.04623      3.83260      4.37342         0.112052      0.103875     -0.466458
Pb      15.42703      3.78611     17.30370         0.166644      0.111738      0.048534
Pb      15.38918     15.43201      4.20577         0.245078      0.372743      0.514856
Pb      15.42648     15.46198     17.32526         0.119292     -0.108447      0.082101
Pb       3.82941      3.88668      8.62054        -0.134360     -0.416965      0.044319
Pb       3.86806     15.40951      8.58562         0.035800      0.310113      0.237657
Pb      15.43192      3.81375      8.59238        -0.297959      0.286629      0.244637
Pb      15.42190     15.43473      8.61995        -0.360486      0.046766     -0.152087
Pb       3.79284      3.80828     12.95005         0.500753     -0.055066     -0.340243
Pb       3.87322     15.38897     13.00965         0.222916      0.151871     -0.088490
Pb       0.02516      3.91286     12.95971        -0.063331     -0.406921     -0.209237
Pb       0.02922      0.03696     12.95886         0.034181     -0.059079     -0.147646
Pb       3.79548      7.76379      4.26874         0.192673     -0.315928     -0.484201
Pb       3.76835      7.68518     17.34467         0.293705     -0.091443     -0.826689
Pb      15.39206      7.72838      4.27790         0.168542     -0.539896     -0.184059
Pb      15.42515      7.70829     17.29381         0.041306     -0.119059     -0.238226
Pb       3.90107      7.76782      8.64940        -0.362630      0.156244     -0.390223
Pb       0.05950      7.66692      8.71822         0.499690     -0.062258     -0.861117
Pb       3.84351      7.70731     12.96210         0.579332     -0.213644     -0.303589
Pb       0.03258      7.77069     12.93155        -0.359238      0.154393      0.212250
Pb       3.87688     11.61998      4.32084         0.006841     -0.180699     -0.704330
Pb       3.91115     11.56705     17.30671        -0.631661      0.189367     -0.113647
Pb      15.38128     11.62656      4.30333         0.082984     -0.502990     -0.064831
Pb      15.45132     11.61240     17.30066         0.198227     -0.185627     -0.253577
Pb       3.85416     11.59846      8.68876        -0.076881     -0.390697     -0.338173
Pb      15.37995     11.57248      8.60389         0.357833     -0.176149     -0.344626
Pb       3.82921     11.52150     12.99929        -0.065676      0.709642     -0.272280
Pb      15.44648     11.63882     12.90083        -0.108285     -0.419557      0.016549
Pb       7.71448      3.82061      4.36319        -0.270556     -0.024082     -0.299849
Pb       7.75113      3.82934     17.30532        -0.288465      0.655160      0.346272
Pb       7.77774     15.42839      4.28554        -0.342335      0.613564     -0.280215
Pb       7.68000      0.01069      0.01426        -0.036867     -0.316866     -0.133012
Pb       7.76241      3.90704      8.57728        -0.180033     -1.160052      0.499684
Pb       7.73469      0.02425      8.62415         0.049181      0.193474      0.005464
Pb       7.74415      3.83013     12.97421        -0.406466     -0.362218     -0.136738
Pb       7.81783      0.00818     13.02771        -0.465643     -0.118497     -0.325963
Pb       7.72263      7.76209      4.31131        -0.044082     -0.175585     -0.291816
Pb       7.76483      7.72083     17.34304        -0.398176     -0.398891     -0.641003
Pb       7.76656      7.70306      8.66115         0.180951      0.398292     -0.030275
Pb       7.72812      7.69836     13.00450        -0.664117      0.089709     -0.491458
Pb       7.73099     11.62487      4.32826        -0.017474     -0.365457     -0.432548
Pb       7.69417     11.53428     17.30721         0.046971      0.323764     -0.148522
Pb       7.67517     11.63204      8.57864         0.541015     -0.384673      0.261333
Pb       7.73478     11.52485     12.97662         0.062243      0.358828     -0.576428
Pb      11.49902      3.82745      4.39689         0.015853     -0.133744     -0.856740
Pb      11.52693      3.87345     17.31838         0.259580      0.388180      0.348549
Pb      11.60498     15.40285      4.33045        -0.125104      0.546197     -0.348505
Pb      11.55674      0.00747      0.01330        -0.058131      0.142783      0.138879
Pb      11.60045      3.89301      8.71396         0.320417     -0.735653     -0.655777
Pb      11.51198     15.40054      8.56701        -0.070023      0.495684      0.233954
Pb      11.60002      3.87811     13.00503        -0.205020      0.017230     -0.141257
Pb      11.54162     15.40504     13.04847         0.034486      0.003383     -0.451629
Pb      11.57439      7.69947      4.26579        -0.092906     -0.259182     -0.054509
Pb      11.57075      7.66883     17.28109        -0.066555     -0.080114     -0.197787
Pb      11.57116      7.65868      8.71893        -0.454700      0.225379     -0.789243
Pb      11.50962      7.67593     13.00660         0.281191      0.235209      0.032869
Pb      11.53989     11.61372      4.30259         0.301908     -0.381654     -0.105600
Pb      11.54060     11.65186     17.27032        -0.011154     -0.606394      0.480269
Pb      11.47752     11.55705      8.62070        -0.349172      0.053893     -0.353549
Pb      11.58882     11.63033     12.87811        -0.115719     -0.661180      0.473818
Ti       1.83079      1.91982      2.31801         1.087199     -0.010093     -0.395068
Ti       1.93101      1.79817     15.34367         0.271269      1.231297     -1.217400
Ti       1.90111     13.49401      2.34438         0.636845      0.274772     -1.272097
Ti       1.83273     13.46202     15.31177         0.770692     -0.169445      1.098950
Ti      13.43653      1.90940      2.31563         0.215970      0.010633      1.000941
Ti      13.50404      1.85099     15.29281         0.283207      0.710345      2.672964
Ti      13.51200     13.47955      2.31335         0.313743      0.374991     -0.091561
Ti      13.41809     13.48135     15.35173         0.493942      0.058283     -0.980169
Ti       1.86829      1.81782      6.74428         0.416463      0.620077      0.009083
Ti       1.92145     13.46467      6.56650        -0.060654     -0.004248      0.720396
Ti      13.45781      1.90631      6.56121        -0.177052     -0.218990     -0.388089
Ti      13.50698     13.47696      6.63505        -0.351300      0.865393      0.751787
Ti       1.95323      1.91948     11.01710         0.051429     -0.042618     -0.306379
Ti       1.93337     13.60165     10.87262         0.342686     -1.095496      2.320191
Ti      13.41373      1.94056     11.01702         0.494293     -0.278863      0.448601
Ti      13.44955     13.52140     10.99158         0.384537      0.449142      0.428051
Ti       1.93014      5.75990      2.29556        -0.118584     -0.353074      1.388786
Ti       1.91431      5.64716     15.27979         0.276831      0.410154      2.311677
Ti      13.47992      5.64707      2.22698         0.343191      0.656898     -0.342913
Ti      13.57378      5.77263     15.33255        -0.035864      0.071353      0.051888
Ti       1.95150      5.74034      6.66294        -0.183134      0.623189     -0.278507
Ti      13.48861      5.76426      6.51756         0.375339     -0.245768      0.808101
Ti       1.85739      5.82812     10.91542         1.189096     -0.611926     -1.757006
Ti      13.48587      5.87496     10.99360         0.067017     -1.393904      0.404110
Ti       1.89080      9.64772      2.29115         0.531785      0.004097      1.235008
Ti       1.89419      9.55391     15.26035         0.095356      0.933301      0.297129
Ti      13.50988      9.57371      2.27931         0.182117      0.153631      0.295158
Ti      13.46723      9.63840     15.33740         0.153823     -0.043129     -0.615393
Ti       1.88601      9.62173      6.62838         0.388241      0.122107      2.366814
Ti      13.40441      9.61554      6.65826         0.538555      0.233130     -0.928648
Ti       1.94990      9.69632     10.97986        -0.217552      0.307569      0.114842
Ti      13.41848      9.59739     10.86812         0.134290      0.695757      1.126100
Ti       5.71445      1.98582      2.30078         0.292051     -0.319324      0.579872
Ti       5.86334      1.94758     15.22999        -0.522510      0.080774     -0.306820
Ti       5.79112     13.53522      2.31889        -0.319746      0.148952     -0.268391
Ti       5.75373     13.53435     15.33978         0.605814     -0.068260     -0.557145
Ti       5.79021      1.93185      6.67146         0.205128     -0.592913     -0.088043
Ti       5.71777     13.50367      6.62402         0.409724     -0.057277      2.000775
Ti       5.84673      1.90460     10.91799         0.014552      0.267712      0.290073
Ti       5.79165     13.58944     10.91997        -0.110499     -0.352494      1.623243
Ti       5.84675      5.76939      2.31421        -0.793848     -0.101567      1.182379
Ti       5.78124      5.81525     15.23630        -0.124485      0.108405      0.936257
Ti       5.86582      5.78399      6.67300        -0.774572     -0.176413     -1.791508
Ti       5.78912      5.77251     10.87636        -0.417022     -0.084576      4.460063
Ti       5.89250      9.62592      2.22847        -1.199788      0.164037      2.501948
Ti       5.69390      9.72577     15.21802         0.773314     -1.616233      1.961809
Ti       5.86365      9.65136      6.67435        -0.662023     -0.275216      2.404154
Ti       5.69447      9.71879     10.89772         1.211429     -1.214230      1.183072
Ti       9.57080      1.92844      2.20491         0.462127      0.193700      0.291693
Ti       9.68616      1.95140     15.36236        -0.220711     -0.475272     -0.102890
Ti       9.66143     13.54493      2.30448        -0.336989     -0.055281     -0.339922
Ti       9.60647     13.54105     15.40190        -0.522921     -0.222964      1.124770
Ti       9.62781      1.89438      6.55364        -0.129495     -0.678456      0.827551
Ti       9.57812     13.55914      6.56470         0.109903     -0.291829      0.354765
Ti       9.67588      1.85227     10.97725        -0.889761     -0.115662     -1.507468
Ti       9.64076     13.49516     10.91304        -0.452129      0.066181      0.217361
Ti       9.61076      5.74832      2.40859         0.494708     -0.488005     -2.081056
Ti       9.63235      5.75580     15.31679        -0.060493      0.482407      1.006197
Ti       9.64003      5.67920      6.61440         0.340111      0.519103     -1.673955
Ti       9.56584      5.70252     10.97234         1.039920      0.188225      0.668441
Ti       9.76758      9.63941      2.21663        -1.019036     -0.223440      2.234856
Ti       9.60005      9.66615     15.23857         0.410655     -0.101231      1.625946
Ti       9.62008      9.60618      6.61676        -0.318089      0.329035      0.821810
Ti       9.58291      9.53313     10.94889         0.001553      1.585481     -0.452520
O       1.86930      1.87125      0.53204         0.078261      0.056661      0.483238
O       1.87489      1.89433     13.49462         0.217939      0.158989      1.014749
O       1.91113     13.49544      0.51661        -0.277847     -0.015157      1.268247
O       2.04484     13.48966     13.59118        -0.473202     -0.183095     -0.011190
O      13.63973      1.86364      0.58335        -0.279944      0.026486     -0.433145
O      13.37395      1.89195     13.60897         0.165063     -0.100933     -1.338658
O      13.65351     13.52332      0.56149        -0.503841     -0.166389      0.262442
O      13.26839     13.48392     13.53533         0.635982     -0.241480      1.208119
O       1.89569      1.92532      5.01331        -0.037906     -0.207421      0.089077
O       2.08157     13.56012      4.81720        -0.473028     -0.315723      0.319594
O      13.54201      1.92542      4.75393        -0.270418     -0.179323      0.927314
O      13.47015     13.67176      4.89726         0.113026     -0.668659     -0.089309
O       1.97036      1.80404      9.22822        -0.269947      0.287848      0.581274
O       1.93046     13.59538      9.15407        -0.108854     -0.163381     -0.221439
O      13.33221      1.99561      9.30373         0.266390     -0.178674     -0.604224
O      13.44530     13.61896      9.24107         0.145181     -0.355147      0.247561
O       1.80850      5.76683      0.55587         0.474615      0.250772     -0.006916
O       1.84822      5.53556     13.57466         0.179700      0.384333     -1.682800
O      13.53574      5.70021      0.37062        -0.049641      0.334244      1.833090
O      13.57748      5.85673     13.53673        -0.123365     -0.258100      0.401301
O       1.90711      5.75665      4.85451         0.022426      0.105544      1.405331
O      13.55860      5.72204      4.77226        -0.426726     -0.105701      0.791233
O       1.85631      5.77492      9.05782        -0.059137      0.143646      2.106870
O      13.57993      5.72562      9.22626        -0.639453      0.470948      0.485184
O       1.87363      9.70595      0.57173         0.238644     -0.367586     -0.752838
O       2.17484      9.69273     13.50035        -1.020879     -0.474190     -0.036659
O      13.54415      9.60112      0.51492        -0.220675     -0.047745      0.471819
O      13.50420      9.70922     13.56167        -0.042870     -0.256175      0.724580
O       1.81232      9.56572      4.94628        -0.053251      0.004400     -1.674478
O      13.50451      9.80890      4.83567        -0.152393     -0.715437      1.786342
O       2.03844      9.69220      9.22701        -0.304914     -0.168183     -0.143215
O      13.35448      9.58770      9.09167         0.306230     -0.022438      0.516274
O       5.66019      2.13243      0.54186         0.147040     -0.472565      0.127919
O       5.99953      1.83262     13.45340        -0.507462      0.392175      1.323700
O       5.92319     13.59794      0.56049        -0.702853     -0.460303      0.137806
O       5.92849     13.41913     13.56137        -0.351983      0.313271      0.969490
O       5.75161      1.97320      4.89080         0.038111     -0.348552      0.554554
O       5.62916     13.41785      4.92393         0.353742      0.132464     -1.510756
O       5.85973      1.95188      9.12230        -0.145610     -0.323946      0.823163
O       5.63563     13.51608      9.18872         0.321461      0.004063      0.110894
O       5.85140      5.55627      0.59913        -0.151573      0.534741     -0.573684
O       5.82778      5.76553     13.50338         0.009630      0.152191     -0.458217
O       5.93007      5.71100      4.85888        -0.496766      0.457391      1.731543
O       6.11240      5.63681      9.24736        -0.519228      0.343303     -2.729841
O       5.73166      9.72445      0.55819        -0.023640     -0.106585     -2.122606
O       5.77438      9.59370     13.51357        -0.224716      0.185973     -1.178825
O       6.08895      9.58521      5.00725        -0.306867      0.067751     -2.196803
O       5.70494      9.66918      9.15556         0.050060     -0.182491     -0.168816
O       9.74004      1.86528      0.39630        -0.586071      0.353571      1.324474
O       9.77626      1.90472     13.56700        -0.298920      0.014848      1.118026
O       9.72592     13.55637      0.50300        -0.282720     -0.064053      1.499767
O       9.49641     13.54839     13.67384         0.486504     -0.275606     -0.432479
O       9.52137      1.79520      4.80689         0.272744      0.231351     -0.120371
O       9.49398     13.68574      4.75038         0.527937     -0.656012      1.265464
O       9.58798      1.74647      9.13579         0.356148      0.618633      1.434005
O       9.68908     13.73925      9.16212        -0.131793     -0.983086      0.141319
O       9.62928      5.64821      0.51193        -0.114113      0.480824      1.710661
O       9.67734      5.81812     13.54552        -0.087358     -0.048383      0.446300
O       9.61164      5.55516      4.74510         0.298196      0.808191      2.148031
O       9.59652      5.67238      9.19983         0.198439     -0.033964     -0.081626
O       9.82403      9.60672      0.52204        -0.399303      0.111090     -0.756039
O       9.65689      9.64576     13.50384        -0.085109     -0.203491     -0.551173
O       9.46244      9.58125      4.86280         0.456899      0.071309     -0.112421
O       9.61716      9.68776      9.17463         0.256265     -0.348535      0.644086
O       3.80534      1.91526      2.81347         0.302273      0.095441     -0.348637
O       3.87041      1.86422     15.73728         0.071247     -0.108080     -0.387634
O       3.82593     13.51814      2.73257         0.244649     -0.238363     -0.198232
O       3.87383     13.55529     15.82807        -0.083786     -0.078775     -0.487167
O       0.01616      1.94706      2.80882        -0.787963     -0.101009     -0.343895
O       0.06887      1.92781     15.74335        -1.726567     -0.276843     -0.348231
O      15.46216     13.50463      2.80518        -0.488749      0.140349     -0.248752
O      15.38812     13.51941     15.68731         0.096942     -0.313392     -0.314522
O       3.85790      1.86530      7.08849        -0.552743      0.350903     -0.095711
O       3.81906     13.35129      7.12744        -0.141978      0.476304     -0.687321
O      15.32878      1.96610      7.06508         1.447528     -0.594153      0.171624
O      15.42662     13.54882      6.97358        -0.326877     -0.025629      0.148410
O       3.91496      1.85130     11.46506        -0.521812      0.337970     -0.494235
O       3.89287     13.49231     11.58223         0.330455      0.456275     -1.341666
O      15.46325      1.88375     11.39468        -0.177769      0.084546     -0.141949
O       0.04402     13.46048     11.39912        -0.471729      0.290919     -0.412654
O       3.85326      5.79147      2.74039        -0.074755      0.013762     -0.292021
O       3.85315      5.88632     15.64593        -0.256985     -0.181113      0.248867
O      15.38828      5.75747      2.75893         0.170457      0.145716     -0.460710
O       0.05190      5.85057     15.69928        -0.867945     -0.409575     -0.108426
O       3.90541      5.68146      7.04009         0.118709      0.256640      0.040661
O      15.46197      5.90713      7.01975        -1.044038     -0.508977     -0.251064
O       3.84033      5.73585     11.26636         0.323930      0.241938     -0.143136
O       0.01645      5.77126     11.37909        -0.903334     -0.254066     -0.012004
O       3.81620      9.62982      2.74671         0.092292      0.171195     -0.001039
O       3.82346      9.61968     15.67757         0.159910      0.078578      0.418480
O      15.40041      9.49866      2.68060        -0.083743      0.510393      0.030127
O      15.46358      9.63419     15.67379        -0.634254      0.076941     -0.065781
O       3.90191      9.68993      6.94037        -0.580994     -0.206879      0.129498
O      15.40409      9.64066      7.15593        -0.303020     -0.539363     -0.291083
O       3.85261      9.45465     11.42285         0.289649      0.587682     -0.479036
O       0.05138      9.68298     11.47784        -0.396565      0.103244     -0.688762
O       7.67226      1.93182      2.62133         0.301683     -0.043809     -0.225292
O       7.69641      2.06539     15.74377         0.724853     -0.645548     -0.421121
O       7.68823     13.42439      2.73100         0.675427      0.488689     -0.154424
O       7.69988     13.48375     15.94743         0.241769     -0.087652     -0.747111
O       7.71529      1.72966      7.01049        -0.543612      0.503234     -0.245672
O       7.67538     13.46048      7.04745         0.405601      0.484198     -0.457856
O       7.79296      1.84781     11.39863        -0.400854      0.301427     -0.156961
O       7.79021     13.43965     11.39486        -1.191887      0.173043     -0.456750
O       7.73356      5.77677      2.80926        -0.409980     -0.213538     -0.575551
O       7.65618      5.69676     15.81049         0.781013      0.235950     -0.602522
O       7.75181      5.84783      6.96668         0.567199     -0.267620      0.398562
O       7.78659      5.70395     11.47450        -0.635739      0.188580     -0.397334
O       7.74257      9.56047      2.61760         0.634556      0.450831     -0.269238
O       7.69366      9.78326     15.66822         0.151827     -0.361303     -0.031102
O       7.80025      9.59929      7.19633        -0.991094     -0.200501     -0.186833
O       7.72054      9.56679     11.46137        -0.541215      0.478102     -0.505001
O      11.51945      1.89036      2.73402         0.372094     -0.050857     -0.408141
O      11.57594      1.91313     15.88450         0.738980     -0.101424     -1.063469
O      11.59937     13.53796      2.80287        -0.359930      0.051430     -0.498227
O      11.54167     13.56251     15.84057         0.151261     -0.048563     -0.449851
O      11.54982      1.95038      6.94044        -0.411796     -0.082533     -0.070223
O      11.51864     13.43016      6.98984         0.040229      0.396655     -0.251419
O      11.50037      1.82953     11.37818         1.506192      0.110314      0.338335
O      11.52483     13.45553     11.42674         0.754098      0.453242     -0.402339
O      11.54809      5.63936      2.73056         0.411049      0.324792     -0.017342
O      11.55955      5.76063     15.74919         0.029857      0.269830     -0.570872
O      11.53116      5.61591      6.94621         0.174831      0.173022      0.179992
O      11.54149      5.88119     11.47227         0.780236     -0.281835     -0.736735
O      11.61572      9.63152      2.79169        -0.547270      0.181632     -0.264656
O      11.51816      9.58009     15.70167         0.488684      0.040044     -0.163410
O      11.47205      9.76236      7.03271         1.562788     -0.221464     -0.097868
O      11.55555      9.44631     11.27437         1.020354      0.537413      0.032060
O       1.94485      3.81500      2.81440        -0.264266      0.507218     -0.431698
O       1.95737      3.79918     15.79135        -0.113408      0.322667     -0.497690
O       1.93827      0.00825      2.73516        -0.324526     -0.389383     -0.020343
O       1.84332     15.45266     15.67367         0.359082     -1.068163      0.146619
O      13.47485      3.82948      2.61240         0.187369     -0.358811      0.116926
O      13.60292      3.86956     15.71905        -0.344961     -0.829078     -0.552430
O      13.54489     15.43641      2.69885        -0.158193     -0.097287     -0.019073
O      13.48817     15.37946     15.80073         0.061184      1.023100     -0.580474
O       1.86563      3.86061      7.21502         0.188176     -0.600368     -0.821874
O       1.87581     15.35537      7.13834         0.180319      0.822150     -0.616151
O      13.44036      3.77266      7.02805         0.411503      1.478598     -0.004830
O      13.44065      0.05580      7.15603         0.316283     -0.992255     -0.676775
O       1.99365      3.88114     11.32819        -0.474040     -0.769840      0.000270
O       1.98817     15.41563     11.50771        -0.344586      0.255374     -0.666884
O      13.39334      3.84683     11.37237         0.247761      0.435704      0.230027
O      13.51334     15.41365     11.53335        -0.167084     -0.125312     -0.595921
O       1.94968      7.71270      2.76385        -0.372996     -0.242424     -0.303748
O       1.86702      7.71346     15.69921         0.436706     -0.192367      0.028821
O      13.33656      7.64400      2.77877         0.715667      0.366521     -0.712110
O      13.48051      7.71302     15.72951         0.208842     -0.044318     -0.048712
O       1.98921      7.68725      7.21033        -0.116237      0.473831     -0.718015
O      13.28811      7.69139      6.90328         0.246694     -0.066559      0.045519
O       1.84548      7.69602     11.24442         0.220566     -0.114700      0.466167
O      13.63674      7.74223     11.43401        -0.251460     -0.120129     -0.633144
O       1.81965     11.58877      2.73379         0.146365     -0.471894      0.100413
O       1.87210     11.53056     15.72315         0.288844      0.638433     -0.107901
O      13.51578     11.59747      2.77279        -0.010170     -0.273963     -0.353286
O      13.42503     11.58094     15.83079         0.230642      0.079429     -0.521303
O       1.78153     11.58887      7.03556         0.270371     -0.237417     -0.192031
O      13.53289     11.59339      7.08640        -0.201092      0.021398     -0.172784
O       2.08229     11.59879     11.28645        -0.307500      0.120392      0.159232
O      13.51456     11.51478     11.38422        -0.244252      0.266560     -0.530661
O       5.73576      3.84852      2.86968         0.302452      0.054446     -0.610463
O       5.68734      3.85331     15.58068        -0.024420     -0.100014      0.002973
O       5.80646      0.02668      2.58196        -0.316877     -0.377266      0.440623
O       5.87289      0.00194     15.71563        -0.082389      0.128564     -0.001553
O       5.88889      3.80642      7.06264        -0.104577      0.617982     -0.089889
O       5.71158     15.36347      7.09080         0.001587      0.244182     -0.583699
O       5.87276      3.76697     11.36959        -0.185259      0.812526     -0.066668
O       5.80974      0.02311     11.44078         0.220576     -1.319982     -0.723934
O       5.76070      7.70392      2.64935         0.157489      0.088450      0.023844
O       5.83951      7.74565     15.68819        -0.016460      0.082535      0.170814
O       5.83257      7.66680      7.22060        -0.176652     -0.031083     -0.612613
O       5.85351      7.67049     11.40067        -0.154753     -0.404914     -0.530384
O       5.76120     11.57733      2.70887         0.085160     -0.277811      0.189026
O       5.74816     11.57706     15.69268        -0.090013      0.447453      0.208448
O       5.88843     11.52334      7.10465        -0.427065      0.570316     -0.359643
O       5.72922     11.53562     11.22264         0.132469      0.607971      0.364588
O       9.60016      3.80088      2.74988         0.068869     -0.593968     -0.370237
O       9.70511      3.88372     15.80271        -0.232092     -0.574999     -0.889880
O       9.61349      0.01792      2.70481        -0.109983     -0.688715     -0.458531
O       9.58932      0.00153     15.80473         0.088349      0.266171     -0.519660
O       9.50446      3.74883      6.95592         0.288917      1.320167     -0.024569
O       9.59641     15.45737      7.02342         0.430243     -1.157750     -0.466011
O       9.72355      3.77629     11.47509        -0.038328      0.877806     -0.577825
O       9.65181     15.43001     11.40582         0.167319     -0.663003      0.223277
O       9.65104      7.63835      2.68017         0.438045      1.010918     -0.034046
O       9.52424      7.72854     15.84365         0.394567     -0.346395     -0.908477
O       9.75302      7.69633      7.15722        -0.211881     -0.822028     -0.590116
O       9.63626      7.70058     11.27325        -0.276496     -1.220789      0.306220
O       9.71608     11.58717      2.74896        -0.255655     -0.128216     -0.462117
O       9.71382     11.55214     15.82808        -0.350421      0.407215     -0.618166
O       9.57355     11.55191      7.01782        -0.015935      1.058323     -0.240202
O       9.69911     11.54489     11.35816        -0.101995      0.060364     -0.177148
