  # total energy = -7880.88621839 
CRSYTAL
PRIMVEC
    15.464    0.0000000000000000    0.0000000000000000
     0.0000000000000000   15.464    0.0000000000000000
     0.0000000000000000    0.0000000000000000   17.350608
PRESSURE
0.05058 0.117736 -2.5046 0.04161 -0.002755 0.066685
PRIMCOORD
320 1
Pb       3.84114      3.93859      4.33029         0.397109     -0.885487     -0.202049
Pb       3.86874      3.98307     17.33862         0.162185     -0.058345     -0.477764
Pb       3.72491     15.36131      4.29022         0.658400      0.606458      0.107747
Pb       3.82426     15.39810     17.14666         0.859845      0.010764      0.964682
Pb       0.19440      3.83467      4.35989        -0.955436     -0.436870      0.554390
Pb      15.41257      3.73371      0.00471        -0.116752      0.219631      0.010322
Pb       0.15866      0.00816      4.29194        -0.515116     -0.768000      0.581004
Pb       0.00211     15.32675     17.23673        -0.371630      0.578361      0.306465
Pb       3.72147      3.91928      8.54935         0.549718     -0.110414      0.591309
Pb       3.74339     15.35564      8.81371         0.857197      0.335957     -0.880804
Pb      15.43321      3.73088      8.54245         0.244017      0.872508      0.894667
Pb       0.01446     15.44276      8.57287        -0.328380      0.164804      0.256859
Pb       3.64990      3.85280     12.93561         0.892539      0.356524      0.366275
Pb       3.75440     15.28002     12.98159         0.707821      0.743058      0.450315
Pb      15.41715      3.85772     12.96029         0.114409      0.390877      0.036342
Pb      15.43170      0.09133     12.96742         0.119877     -0.309686     -0.076148
Pb       3.75710      7.74663      4.26323         0.326666      0.152153      0.024023
Pb       3.64926      7.56644      0.14193         0.716357      0.581418     -0.691437
Pb      15.40430      7.72089      4.22655        -0.115692      0.377409      0.533459
Pb      15.44488      7.69856      0.08602        -0.300537      0.195964     -0.145221
Pb       3.92486      7.79070      8.59451         0.138017     -0.088296      0.440412
Pb       0.16832      7.71692      8.47986        -0.729330      0.050550      1.092814
Pb       3.83223      7.64625     13.05244         0.337388     -0.002167      0.237250
Pb       0.00391      7.85855     13.01256        -0.173060     -0.510577     -0.282374
Pb       3.83452     11.63327      4.30709         0.506145     -0.750094      0.169599
Pb       3.80115     11.64631     17.28161         0.816578     -0.394914      0.638676
Pb       0.06531     11.54836      4.28332        -0.692298      0.093248      0.122699
Pb       0.11858     11.61619     17.26112        -0.842643     -0.610661      0.791539
Pb       3.89227     11.63906      8.52015         0.272910     -1.460710      1.632099
Pb      15.41041     11.54024      8.58286        -0.062460      0.091842      0.617810
Pb       3.75468     11.58318     13.00895         0.802734     -0.201970      0.358816
Pb      15.42391     11.71946     12.85928        -0.046019     -0.292591     -0.268906
Pb       7.59901      3.81006      4.30154         0.358341      0.025893      0.207692
Pb       7.69603      3.97753     17.25906         0.346989     -0.614419      0.402641
Pb       7.81735     15.36780      4.32892         0.173724      0.204816     -0.209770
Pb       7.62733     15.34012     17.21075         0.271983      0.285608      0.646519
Pb       7.62290      3.88612      8.70814         0.005645      0.015412     -0.221237
Pb       7.65075      0.13983      8.65842         0.034256     -0.816117      0.611855
Pb       7.57365      3.82537     12.90483         0.513079      0.461042      0.434766
Pb       7.77215      0.07218     12.93643         0.181244     -0.802656      0.503913
Pb       7.68312      7.74308      4.26873         0.252091     -0.424972      0.048768
Pb       7.75827      7.70421     17.33548        -0.314860      0.546428      0.058109
Pb       7.71986      7.69472      8.62258        -0.092548      0.036343      0.589217
Pb       7.58910      7.75223     13.00992         0.190137     -0.165803      0.308146
Pb       7.80180     11.56731      4.29118        -0.015787      0.071249      0.103401
Pb       7.75102     11.52825     17.24999        -0.267955     -0.058664      0.392128
Pb       7.66647     11.59331      8.65264         0.215089     -0.313385      0.334337
Pb       7.69794     11.56943     12.96471         0.281340     -0.430031      0.729889
Pb      11.46054      3.86797      4.34625         0.024274     -0.605160      0.037594
Pb      11.55570      3.87173      0.06423        -0.028348     -0.062591      0.110775
Pb      11.65758     15.43646      4.20791        -0.366245     -0.172726      0.918368
Pb      11.51085      0.04362     17.33365         0.231948     -0.292464     -0.154516
Pb      11.78815      3.90626      8.59121        -0.943393      0.217973      0.611971
Pb      11.59473     15.42106      8.69779        -0.133727      0.307544      0.004492
Pb      11.58586      3.82137     13.03275        -0.010608      0.453411     -0.520841
Pb      11.64819     15.43534     12.96388        -0.562674     -0.101923      0.042595
Pb      11.73507      7.69799      4.31403        -0.648513     -0.132784     -0.424148
Pb      11.73712      7.77297     17.22629        -0.417803     -0.154371      0.657148
Pb      11.62775      7.75458      8.66462        -0.381538     -0.340853      0.087570
Pb      11.58177      7.77058     13.08786        -0.156556     -0.347480     -0.377804
Pb      11.67371     11.38982      4.31814        -0.371961      0.900136      0.060301
Pb      11.50566     11.51981     17.18815         0.497087      0.363950      0.626478
Pb      11.53447     11.52161      8.54149        -0.091855     -0.061431      0.719223
Pb      11.63921     11.56939     12.90892        -0.445610     -0.031512      0.105126
Ti       1.84320      1.89619      2.21218         1.957703     -0.307293      0.269997
Ti       1.98854      1.90897     15.37109        -0.832058      0.351260     -1.168645
Ti       1.88584     13.41380      2.34190         0.830533      0.726615     -1.397136
Ti       1.90464     13.40813     15.26333         0.492429      1.602370     -0.773166
Ti      13.56469      1.89538      2.46851        -1.195811      0.975222     -1.953480
Ti      13.55955      1.89287     15.39116        -0.838306     -0.235138     -0.442803
Ti      13.54824     13.54957      2.31769        -0.412156     -0.956159     -0.531996
Ti      13.57859     13.44719     15.28331        -2.444327      0.686490     -1.034456
Ti       1.90517      1.91084      6.68227         0.581766      0.503418     -0.844313
Ti       1.93815     13.44945      6.74685        -0.065836      0.648886     -1.129329
Ti      13.42507      1.91228      6.65774         1.542498     -0.654235     -1.207320
Ti      13.49924     13.55109      6.68272         0.884982      0.091636     -1.515130
Ti       2.04592      1.92720     11.00905        -0.686013      0.229801     -1.230033
Ti       2.04539     13.53300     10.93439        -1.863486     -0.789089     -0.644967
Ti      13.61297      1.95512     11.06364        -1.241658      1.170918     -0.549697
Ti      13.51080     13.57894     10.92752         0.556792     -0.524905      0.414943
Ti       1.79421      5.74563      2.30789         1.310032      0.127370     -0.349129
Ti       1.80662      5.80569     15.36571         0.375030     -0.529084      1.113779
Ti      13.57245      5.71011      2.36202        -2.138135     -0.200786     -1.552931
Ti      13.56111      5.71410     15.43549        -0.633537      1.037374     -0.854022
Ti       1.91710      5.83084      6.54368         0.035614     -0.353381      0.900563
Ti      13.50933      5.77929      6.58946         0.203869      1.021161     -0.167758
Ti       1.88308      5.84175     10.92809         0.088366      0.227216      1.020120
Ti      13.51122      5.85537     11.02206         0.387286      0.219077      0.126146
Ti       1.84778      9.62434      2.32591         0.697972      0.122312     -1.360748
Ti       1.86061      9.59722     15.37973         0.989956     -1.007263     -0.704737
Ti      13.46869      9.69897      2.27375         0.678836     -0.106546      0.439443
Ti      13.63416      9.65629     15.29829        -1.536095     -0.779239      0.068037
Ti       1.87484      9.67619      6.59148         0.764815      0.307250     -1.067249
Ti      13.46796      9.58607      6.65974         0.324343      0.626657     -0.581910
Ti       2.01675      9.67366     11.10100        -1.810162     -0.288304     -2.151214
Ti      13.47732      9.67934     11.01084         0.468844     -0.340390      0.700201
Ti       5.76000      1.87480      2.35060        -0.390730     -0.256164     -1.133145
Ti       5.82834      1.95310     15.34805        -0.040108     -0.017664      0.213883
Ti       5.76114     13.49333      2.40389         0.620310     -0.414255     -2.875551
Ti       5.78260     13.42492     15.32588         1.358104      0.412960     -0.664024
Ti       5.70763      1.83990      6.78972        -0.411161      0.917029     -0.818373
Ti       5.85882     13.45536      6.75942         0.083146     -0.017995     -0.170051
Ti       5.80684      1.86301     11.04884        -0.298590      0.527905     -0.211878
Ti       5.84638     13.47518     11.12123         0.094756      0.168176     -1.690647
Ti       5.76816      5.80738      2.35643         0.093003     -0.516901      0.090524
Ti       5.76879      5.84790     15.29011        -0.847502      0.319501     -1.475903
Ti       5.75290      5.70495      6.63446         0.243349     -0.157599     -0.110577
Ti       5.78350      5.75942     11.05205        -0.556451      0.631003     -0.994262
Ti       5.81327      9.67990      2.36909        -0.326235     -0.359562     -0.799162
Ti       5.65407      9.63102     15.40798         0.770627     -0.975720     -1.112067
Ti       5.78020      9.52115      6.56013         0.077539      1.527354     -0.831073
Ti       5.65336      9.65076     11.07320         1.346710     -0.697863     -0.004701
Ti       9.61271      1.94584      2.32405        -0.167156     -0.158367     -0.598711
Ti       9.66460      1.95582     15.32337         0.135844     -0.095747     -0.272868
Ti       9.72817     13.48606      2.36819        -0.006735     -0.107961      0.040696
Ti       9.68836     13.45719     15.27757         0.496583      0.339690     -1.424995
Ti       9.62590      1.89682      6.85033        -0.694259      0.495611     -1.174200
Ti       9.70297     13.52051      6.75871        -1.229180     -0.627127     -2.134614
Ti       9.70558      1.91631     11.04936        -0.298824     -0.149530     -1.503507
Ti       9.66396     13.38162     10.98049        -1.342464      0.251702      0.216900
Ti       9.68595      5.81160      2.36921        -0.387177     -0.839405     -0.671447
Ti       9.62403      5.82792     15.38614         0.921005     -0.083721     -1.632699
Ti       9.59673      5.71537      6.70705        -0.067240      0.326700      0.610385
Ti       9.68027      5.75433     10.89198         0.069664      0.782808      0.296486
Ti       9.67497      9.65688      2.32960        -0.141011     -0.600010     -0.773927
Ti       9.60925      9.59074     15.35698        -0.129207      0.470396     -1.132453
Ti       9.57704      9.58676      6.70731        -0.041578      0.437764     -0.707983
Ti       9.57457      9.55594     11.06873        -0.066667      0.285656     -1.794411
O       1.77271      1.96466      0.45120         0.454573     -0.497114      0.148781
O       1.75492      1.83233     13.54786         0.593705      0.254454      0.762948
O       1.99241     13.44703      0.53182        -0.303142     -0.224608     -0.319913
O       1.97070     13.59662     13.48417        -0.247076     -0.435340      0.765041
O      13.39035      1.99445      0.64885         0.672973     -0.048688      0.709401
O      13.55174      1.87310     13.57029        -0.214446     -0.009548      0.278822
O      13.41980     13.33492      0.54337         0.718250      0.473823      0.738642
O      13.60773     13.60097     13.45264        -0.495321     -0.018119      1.052939
O       1.95636      2.07249      4.88456        -0.459915     -0.511913      0.025813
O       2.00100     13.46447      4.90875        -0.259860     -0.281809      0.507825
O      13.50816      1.88611      4.89599         0.294238     -0.400115      0.263518
O      13.68856     13.66407      4.88992        -0.219941     -0.243199      1.118175
O       2.10378      2.04518      9.17113        -0.723994     -0.807494      1.399986
O       1.96078     13.43885      9.14536         0.125126      0.748826      0.091630
O      13.61273      2.16345      9.30734        -0.419918     -0.497310     -0.757279
O      13.56791     13.46118      9.18165        -0.437953      0.481888     -0.253694
O       1.79303      5.78341      0.50501         0.553227     -0.195243      1.287297
O       1.77819      5.75367     13.65664         0.141209     -0.050031     -1.090875
O      13.46306      5.63762      0.54708         0.499518      0.106203      1.360556
O      13.47692      5.95943     13.64113         0.126251     -0.781959      0.815302
O       1.85734      5.81763      4.78266        -0.017715     -0.328313     -0.187809
O      13.60554      5.96467      4.82449        -0.498544     -0.217261      0.240365
O       1.85803      5.79534      9.19008         0.189313      0.537123     -0.668453
O      13.61652      5.84886      9.27467        -0.328396     -0.237935     -0.845137
O       1.81171      9.64528      0.49938         0.362455      0.255578      0.855065
O       1.75047      9.54444     13.59512         0.659105      0.567526      0.562242
O      13.55013      9.80253      0.56964         0.031268      0.030972     -1.325892
O      13.49692      9.46770     13.54654         0.422976      0.584917     -0.007879
O       1.89721      9.72847      4.78609        -0.118757      0.005261      0.555119
O      13.51891      9.58881      4.86102        -0.216836     -0.237442      0.519851
O       2.05321      9.65294      9.25724        -0.264292     -0.313377      0.945542
O      13.48634      9.77959      9.28813         0.063812     -0.287684     -1.607871
O       5.80323      1.70086      0.58080        -0.162383      0.458160      0.116796
O       5.76436      2.07974     13.63895         0.335242     -0.320257     -0.979025
O       5.72686     13.46938      0.50968         0.105937      0.295952      1.243887
O       5.75222     13.50874     13.54678        -0.002346     -0.136306      0.291514
O       5.69873      1.89626      5.03940         0.243058     -0.122504     -0.563746
O       5.82213     13.41604      4.99506        -0.004841      0.147942     -0.722739
O       5.71166      1.96201      9.29105         0.109252     -0.450547     -0.130613
O       5.75548     13.46516      9.27350         0.081623      0.047066      1.276582
O       5.53602      5.88782      0.57815         0.511614     -0.213422      0.263673
O       5.77448      5.79482     13.43004        -0.115542     -0.142485      1.632913
O       5.77720      5.62916      4.85475        -0.283469      0.135351     -0.036770
O       5.77525      5.84813      9.23232        -0.078470     -0.266019      1.031851
O       5.80852      9.54500      0.58107        -0.034145      0.049874      0.224148
O       5.68229      9.43611     13.62432        -0.008221      0.750412      0.226124
O       5.86458      9.72042      4.74164         0.005133     -0.559455      1.278697
O       5.61996      9.58515      9.30642         0.111693      0.141492      0.186109
O       9.59902      1.94935      0.54224         0.318521      0.017483      0.636954
O       9.67496      1.97030     13.50074         0.260006      0.091742      0.914757
O       9.93841     13.42195      0.63460        -0.438872      0.153392     -0.200444
O       9.67198     13.40721     13.46672         0.167660      0.213871      1.093872
O       9.51160      1.90943      5.08528         0.189340     -0.249992      0.128257
O       9.69152     13.45472      4.88039        -0.403572      0.290073      1.532923
O       9.61419      1.91365      9.21249         0.222951     -0.093370      0.838716
O       9.54251     13.21091      9.21687         0.623514      1.016892     -0.085900
O       9.65201      5.76144      0.58165        -0.213157      0.088971      0.333573
O       9.70246      6.00445     13.58000         0.150532     -0.823726      1.510188
O       9.58692      5.69666      4.96446         0.247593      0.153504     -0.505312
O       9.65667      5.78928      9.10400        -0.162816      0.015267      0.729817
O       9.65725      9.65187      0.55415        -0.121962     -0.126375     -0.379076
O       9.58306      9.46313     13.58196         0.314784      0.344460      0.044486
O       9.67252      9.65906      4.91060        -0.195354     -0.325567      0.459841
O       9.42098      9.64210      9.22735         0.714845     -0.118824      0.748676
O       3.83243      1.97930      2.65995        -0.735489     -0.162709      0.079142
O       3.88321      1.88489     15.57899        -0.781535      0.163887      0.640160
O       3.89379     13.31444      2.66440        -0.684690     -0.108661      0.507223
O       3.95341     13.54626     15.59880        -2.247519     -0.362054      0.289828
O       0.04834      1.64599      2.69619         0.275497      1.005952     -0.124314
O      15.38141      1.87699     15.73824         0.939403     -0.659129      0.318260
O       0.03829     13.57175      2.65767        -0.274874     -0.227594      0.210089
O      15.40757     13.51472     15.62705         1.837630     -0.207327      0.238878
O       3.75130      1.95157      7.04295         0.526654      0.033220      0.390187
O       3.86188     13.34588      7.14949        -0.788307      1.724320     -1.011974
O      15.39256      1.97245      7.07732         0.359253     -0.546617     -0.126429
O       0.03158     13.62786      7.15388        -0.303814     -0.551824     -0.360429
O       3.89048      1.86393     11.50436        -0.759741     -0.073749     -0.243009
O       3.87716     13.49880     11.33049        -0.018816      0.526314      0.429301
O      15.41795      1.92843     11.35362         1.646643     -0.270252      0.294062
O      15.41618     13.61280     11.27718         0.407928     -0.222106      0.129151
O       3.74749      5.73810      2.80209        -0.215730     -0.249070     -0.678412
O       3.77484      5.80978     15.71560        -0.045764     -0.447264      0.286503
O      15.37181      5.84375      2.77354         1.714258      0.142605     -0.294542
O      15.39311      5.90771     15.88465         0.454849     -0.828548     -0.360089
O       3.84701      5.76912      7.02216        -1.176754      0.591820     -0.447743
O      15.45082      5.98619      6.96261         0.097317     -0.816087     -0.285378
O       3.81221      5.75701     11.44881        -0.360269     -0.359742     -0.188890
O       0.06642      5.86403     11.37437        -0.463314     -0.356604      0.247697
O       3.91385      9.74180      2.71424        -0.914066     -0.453041      0.039077
O       3.80533      9.63485     15.73152        -0.962964      0.195134      0.335024
O      15.43755      9.52985      2.64382         0.337890      0.140863      0.368256
O       0.01625      9.63492     15.82758        -0.093113      0.436318     -0.224706
O       3.93116      9.80682      6.89624        -1.136888     -0.772330      0.064669
O      15.44333      9.69055      6.96574        -0.214090     -0.190232      0.135298
O       3.83894      9.70003     11.58067        -0.287593      0.082165      0.024694
O       0.02428      9.76805     11.47578         0.039512     -0.126600     -0.343641
O       7.71014      1.81786      2.64231        -0.441459     -0.288185      0.759206
O       7.71283      2.03247     15.67038         0.594397     -0.321526      0.188953
O       7.82538     13.48285      2.57269        -0.884775      0.346995      0.695896
O       7.81792     13.41867     15.74701        -0.475116      0.244352     -0.104961
O       7.65412      1.97130      7.15817        -0.166141     -0.143964      0.224606
O       7.74540     13.55694      7.13714        -0.312306     -0.350603     -0.256442
O       7.73641      1.87344     11.48875        -0.320353      0.613514     -0.443897
O       7.66396     13.40775     11.48990         0.794216      0.377907     -0.326357
O       7.70246      5.78007      2.71115        -0.509821      0.348158     -0.221323
O       7.71776      5.84867     15.69272        -0.584633     -0.234260      0.243987
O       7.62299      5.70025      6.98698         1.025862      0.194917      0.441258
O       7.68770      5.86036     11.41445         0.071555     -0.089175     -0.530005
O       7.80968      9.50168      2.65200        -1.002012     -0.171108      0.430386
O       7.62731      9.71475     15.67232         1.047591     -0.760082      0.569232
O       7.61144      9.70117      7.05520         1.023935     -0.534598     -0.253267
O       7.67163      9.55387     11.49791        -0.336158      0.255554     -0.361527
O      11.58128      1.93514      2.88815        -0.365970      0.412020     -0.561487
O      11.61017      1.99665     15.79283        -0.272611     -0.067240     -0.455256
O      11.72577     13.42997      2.87359        -0.545804      0.096332     -0.359573
O      11.61119     13.47460     15.69740         0.169831     -0.241200     -0.390168
O      11.62374      1.89616      7.03159        -1.045617      0.043682      0.679718
O      11.55911     13.66979      7.04946         0.414444     -0.483030      0.330728
O      11.55876      1.98945     11.33637         0.087135      0.067655      0.520193
O      11.47176     13.49755     11.30030         1.983902      0.142407      0.130578
O      11.63248      5.56407      2.75567        -0.159694      0.417572      0.064148
O      11.60271      5.71875     15.89169         0.000586      0.662215     -0.747823
O      11.57883      5.89482      7.03496         0.894415     -0.425229     -0.156121
O      11.61280      5.75712     11.28056        -0.328791      0.035857      0.206060
O      11.59038      9.70017      2.62390         0.017951     -0.143517      0.695868
O      11.60560      9.66266     15.64049         0.073814     -0.705282      0.064913
O      11.53887      9.62077      7.02327         0.717690     -0.033895      0.163966
O      11.57364      9.66208     11.37915         0.247122      0.397476      0.189873
O       1.74968      3.81142      2.61560         0.054709      0.426744     -0.114944
O       1.80166      3.81656     15.72038         0.346633     -0.199131     -0.006729
O       2.07338     15.29790      2.61605        -0.258085      1.355347      0.296606
O       1.91877     15.41001     15.69396        -0.247195     -0.466691     -0.004489
O      13.69914      3.74584      2.88651         0.059028      1.259857     -0.261956
O      13.68205      3.83766     15.72192        -0.635202     -0.143002     -0.362232
O      13.54693      0.03811      2.62685        -0.328962     -1.861524      0.392448
O      13.43461     15.39254     15.85750         0.579411      0.207686     -0.529563
O       1.87166      3.92495      7.01499        -0.249118      0.381670     -0.404376
O       1.89680      0.04835      6.86215         0.112481     -1.128749      0.884728
O      13.54161      3.89449      6.89936        -0.139784      0.285092      0.341358
O      13.47086     15.44762      7.14394         0.413401      0.609417      0.363582
O       1.89882      3.80348     11.32072         0.009626      0.275787      0.304497
O       1.94034     15.43305     11.32845         0.205303      0.337228     -0.136969
O      13.53423      3.92294     11.46548         0.090158     -0.300382      0.411337
O      13.41437      0.08912     11.31965         0.014343     -1.350383     -0.085403
O       2.02399      7.72654      2.63869        -0.525035     -0.691733      0.019606
O       1.83060      7.68591     15.83400         0.270907      0.591627     -0.237872
O      13.36520      7.73903      2.51430         0.432252     -1.030918      0.780395
O      13.62539      7.76209     15.90463        -0.514700     -0.123009     -0.400614
O       1.95402      7.79503      6.80971         0.169034     -0.334980      0.652360
O      13.52093      7.76864      7.05737        -0.109044     -0.183600      0.050854
O       1.99930      7.79195     11.50403        -0.280543     -0.747865     -0.828898
O      13.58446      7.78214     11.38396        -0.249699     -0.281467     -0.215101
O       1.86413     11.50960      2.57901        -0.255890      0.454793      0.675237
O       1.99775     11.54896     15.58901        -0.527878      1.066228      0.235564
O      13.64933     11.53461      2.78722        -0.080294      0.813316      0.182711
O      13.56612     11.51835     15.47044         0.251204      1.129607      0.377564
O       1.79059     11.56602      7.05982         0.429505      0.285899     -0.337126
O      13.50621     11.65572      6.94996        -0.143079     -0.645853      0.184453
O       2.06208     11.64025     11.30914        -0.758775      0.178795      0.649079
O      13.56190     11.64197     11.36564        -0.447723      0.328131      0.386856
O       5.80887      3.80719      2.61531        -0.218713      0.206707      0.237460
O       5.78672      3.97106     15.76025        -0.349353     -0.842039      0.331477
O       5.59056     15.30976      2.79909         0.847620      1.008910      0.140223
O       5.88140     15.40133     15.69430        -0.208860      0.446328     -0.175491
O       5.66743      3.86810      7.09837         0.311050     -0.544683      0.176572
O       5.66098     15.43260      7.18413         0.172416     -0.208215      0.038672
O       5.77011      3.77561     11.38283         0.103932      0.784311      0.065177
O       5.86602     15.43377     11.44593        -0.489046     -0.248497     -0.033213
O       5.66236      7.61376      2.90559         0.510753      0.730518     -0.627155
O       5.63361      7.69139     15.63096         0.704362     -0.517365      0.751364
O       5.81207      7.65981      7.06169        -0.449756      0.789432     -0.562231
O       5.59786      7.73006     11.37748         0.298178     -0.313323      0.118677
O       5.90969     11.52787      2.61633         0.205568      0.424033      0.534514
O       5.81861     11.52944     15.71130        -0.597351      0.931591      0.120712
O       5.83039     11.57431      7.11706         0.004809     -0.078891     -0.351441
O       5.77726     11.55048     11.63374        -0.501295      0.067234     -0.799505
O       9.49594      3.83229      2.83208         0.806966     -0.332934     -0.218300
O       9.68937      3.87514     15.83127        -0.515572      0.077686     -0.648830
O       9.69685     15.44315      2.72212         0.267162     -0.139408      0.131464
O       9.73480     15.44482     15.61886        -0.359882      0.378945      0.156659
O       9.64035      3.85230      7.13015         0.337241     -0.286447      0.086056
O       9.47935     15.40637      7.16117         1.107791      0.527765      0.082987
O       9.57069      3.94087     11.29127         0.152830     -1.078007      0.428254
O       9.57774     15.42554     11.36222         0.341717      0.133437     -0.066034
O       9.70760      7.61151      2.73662         0.386723      0.896490      0.281184
O       9.55707      7.73131     15.77158         0.607159     -0.324830      0.387743
O       9.61197      7.70050      7.15910        -0.226691      0.266542     -0.553469
O       9.79502      7.73438     11.29985        -0.494156     -0.897102      0.037240
O       9.63008     11.48329      2.70048         0.306269      1.021397      0.351798
O       9.69749     11.52211     15.65132        -0.262365      0.378506      0.178100
O       9.72011     11.53456      7.05176        -0.442925      0.430583     -0.119653
O       9.60166     11.50861     11.33798         0.136471      0.141448      0.743428
