  # total energy = -7843.90503452 
CRSYTAL
PRIMVEC
    15.6080000000000005    0.0000000000000000    0.0000000000000000
     0.0000000000000000   15.6080000000000005    0.0000000000000000
     0.0000000000000000    0.0000000000000000   16.6239999999999988
PRESSURE
4.10932 4.40506 3.4591 -0.196201 -0.328837 -0.244278
PRIMCOORD
320 1
Pb       4.02011      3.92604      4.18129        -0.347431      0.347378      0.031509
Pb       3.96549      3.77718     16.60792         0.401783      0.693550     -0.394739
Pb       4.05217      0.00719      4.11551        -1.044044      0.230832      1.335083
Pb       3.91207      0.08841      0.12042        -0.152852     -0.195304      0.018568
Pb       0.12203      3.86636      4.16276        -0.172061      0.954667     -0.072352
Pb       0.02266      3.87341      0.03035        -1.011630     -0.050130      0.252089
Pb      15.54022      0.03253      4.12263         0.239433     -0.775821      0.897585
Pb       0.00907      0.03378     16.59852        -1.414450     -0.401517      0.836217
Pb       3.94585      3.82075      8.22801        -0.179661      0.675219      0.789812
Pb       3.90637      0.01583      8.47752        -0.286231     -1.005264     -0.385747
Pb      15.58464      3.80134      8.31321        -0.209807      1.243840     -0.300783
Pb      15.45774     15.56975      8.21909         0.017487     -0.797280     -0.339572
Pb       3.79337      3.85178     12.35656        -0.108367      1.007789      0.147683
Pb       3.85318      0.15315     12.40027        -0.261398     -0.627968      0.681796
Pb       0.08250      3.89873     12.41693         0.620222      0.345923      0.308809
Pb      15.42002     15.46111     12.21153         0.829436      0.634616      0.554117
Pb       3.90053      7.98943      4.13441         0.352809     -1.400252      0.755887
Pb       3.95932      7.86184     16.59063        -0.848409     -0.342564      0.779035
Pb       0.05684      7.74462      4.13393        -0.402614      0.172910      0.458230
Pb       0.01604      7.95475     16.53722        -0.021362     -0.156484      0.346636
Pb       4.00303      7.85154      8.44857         0.506511     -0.452986      0.143019
Pb       0.01934      7.79330      8.39881        -0.961822      0.235940     -0.441316
Pb       3.85233      7.67942     12.57305         0.178895     -0.371535     -0.301465
Pb      15.59172      7.71090     12.44498        -0.168824     -0.819580      0.920495
Pb       3.81111     11.81778      4.34007        -0.428120     -0.112178     -0.144014
Pb       3.71369     11.75602      0.11332         0.143906     -0.107853     -0.303713
Pb       0.08191     11.64962      4.11221        -0.130233     -0.098829      1.389041
Pb      15.51633     11.64856     16.51068        -0.235612      0.119617     -0.013824
Pb       3.85281     11.59328      8.22724        -1.330796      1.574645      3.180691
Pb      15.54184     11.65161      8.22046        -0.255166     -0.342412      1.012795
Pb       4.15346     11.78240     12.42347        -2.094365     -0.809629      1.452643
Pb      15.47402     11.71385     12.46212        -0.268614      0.695207     -0.261020
Pb       7.96603      3.91235      3.89671        -0.880682      0.164234      1.531335
Pb       7.82564      3.93620     16.49948        -0.432371     -0.405886      1.046065
Pb       8.02952     15.58732      4.09736        -0.209272     -0.344403      1.410098
Pb       7.68927     15.45934     16.54962         1.791718     -0.328886      1.323861
Pb       7.62903      3.96753      8.06980         0.982655      0.114693      2.864134
Pb       7.74024      0.00566      8.31285         0.172065      0.376442      0.459611
Pb       7.82767      3.90639     12.41208         0.005811     -0.120165      0.234216
Pb       7.98743      0.14716     12.53287        -0.688793     -1.088137      0.217479
Pb       7.69573      7.83084      4.10374        -0.986575     -0.759808      0.441665
Pb       7.70134      7.84219      0.08741         0.714274     -0.174474     -0.675602
Pb       7.73827      7.90256      8.27348        -0.393856     -0.476498      0.296951
Pb       7.76003      7.93023     12.44698        -0.374551     -0.986116      0.626903
Pb       7.74177     11.75018      4.06648        -0.010854      0.017017      0.613135
Pb       7.87112     11.92823     16.57250         0.408999     -2.060388      0.690943
Pb       7.69410     11.57302      8.10430         0.617648      0.005703      1.876689
Pb       7.83654     11.55159     12.56284        -0.006148      0.514765     -0.060698
Pb      11.50711      3.86193      4.04080         0.755779     -1.087785      0.111301
Pb      11.73715      3.80090     16.55630         0.351078      0.183852      0.825932
Pb      11.67101     15.52310      4.20889        -0.003546     -0.954087      0.142720
Pb      11.82779     15.60222      0.11191         0.458510      0.138444     -0.459638
Pb      11.58715      3.98809      8.41018         2.731946     -2.081512      0.459315
Pb      11.63156      0.08964      8.19150         0.753498      0.321504      1.034147
Pb      11.61335      3.69688     12.38086         0.129362      0.026916      1.103730
Pb      11.61787     15.42614     12.37866        -0.391296      1.303672      0.252820
Pb      11.42288      7.66943      4.16033         2.129898      0.500483      0.730061
Pb      11.81991      7.84883     16.56880        -0.604337     -0.456220      0.495901
Pb      11.79205      7.68182      8.51991         0.318228      0.353918     -1.134110
Pb      11.63248      7.75429     12.51273         0.171911     -0.285958      0.912541
Pb      11.53400     11.56577      3.96993         0.713461      1.014911      2.318080
Pb      11.79287     11.54175     16.42031        -0.991727      0.938492      0.930367
Pb      11.48435     11.69163      8.25938         1.161694     -0.423678     -0.026707
Pb      11.74096     11.62631     12.40327        -0.714825      0.260837      0.454748
Ti       2.06468      1.94933      2.11999         0.527431     -0.529317      1.681892
Ti       1.88792      1.97199     14.78429         0.152296     -2.418125     -0.852423
Ti       1.88379     13.70642      2.23010         0.122729      0.245864      0.384958
Ti       1.99809     13.97966     14.38958         0.433344     -3.774581     -0.425404
Ti      13.78048      2.13669      2.24732        -2.958753     -0.543044     -1.597686
Ti      13.64661      1.91506     14.73911        -0.756459      0.475490      1.516081
Ti      13.72074     13.65353      2.18681        -0.799543      1.235222     -2.166745
Ti      13.82731     13.75303     14.39625        -4.562561      0.748370      3.149894
Ti       1.88198      1.96705      6.47884         0.273572     -0.226143     -2.015380
Ti       2.02779     13.65332      6.54179        -1.160032      0.234975      0.119555
Ti      13.48059      1.98791      6.12468         1.356854     -1.318172      0.067324
Ti      13.58641     13.54634      6.44782        -1.481833     -0.077650      1.170215
Ti       1.95865      1.95310     10.27156        -1.168406      0.113291      2.281323
Ti       1.83013     13.58946     10.61588         0.527989      0.514150     -2.360353
Ti      13.84474      1.98580     10.53737        -3.802542      0.131543      0.385462
Ti      13.40496     13.74012     10.46649         1.807871     -2.671765     -1.100294
Ti       2.02941      5.85179      2.06414        -0.508387      0.123983      1.914994
Ti       1.87070      5.87645     14.97962         1.442604      0.345614     -2.769371
Ti      13.52586      5.89323      2.29917         1.892958      0.523627     -0.984738
Ti      13.67224      5.81497     14.82415        -1.081061      0.803075     -0.212548
Ti       2.13280      5.91869      6.61252        -0.223381     -0.071635      0.882811
Ti      13.67368      5.71340      6.26485         0.784909      1.743080      1.760654
Ti       1.92160      5.99820     10.42784         1.187029     -2.685694      3.842324
Ti      13.54046      5.88284     10.65529         1.117756     -1.196696      0.349798
Ti       2.02269      9.76405      2.31049         0.170699     -0.307626     -1.481653
Ti       2.13923     10.04094     14.73105        -2.173595     -4.232137     -2.614283
Ti      13.56919      9.95406      2.24698         1.099689     -1.867834     -0.121405
Ti      13.57779      9.71396     14.59353         0.640298     -0.828700     -0.282727
Ti       1.92369      9.72183      6.60910        -2.815376     -1.231858     -2.584132
Ti      13.59412      9.57976      6.33778         0.485571      0.935123     -0.192106
Ti       1.62585      9.95134     10.85407         4.995014     -1.241770     -0.820391
Ti      13.39992      9.75995     10.57592         5.016460     -0.097029      0.314432
Ti       6.11921      1.79960      2.32168        -0.408397      1.777455     -1.331657
Ti       5.95156      1.69863     14.84936        -1.294473      2.412689      0.518528
Ti       5.76506     13.69701      2.27023         2.340313     -0.435001      0.263186
Ti       5.75432     13.51559     14.90750        -0.533400      1.467863     -3.204649
Ti       5.81001      1.88684      6.18959        -0.500791      0.511960      2.356992
Ti       5.87165     13.63468      6.47430        -0.926388     -0.293159     -0.155369
Ti       5.64874      1.85261     10.41904         1.738722      2.282055      0.135921
Ti       5.78112     13.50150     10.74731         0.223092      1.749041     -1.117486
Ti       5.92483      5.69633      2.15521        -2.120469      1.655423      0.365540
Ti       5.80359      5.77192     14.74739         0.492206      1.643892     -2.159537
Ti       5.98722      5.79355      6.41745         1.028541      2.293620      0.452479
Ti       6.03071      5.80021     10.54850        -2.254792     -0.728588      2.506576
Ti       5.90885      9.92157      1.99147        -0.690205     -1.095407      1.685456
Ti       5.94363      9.71645     14.74669        -0.262257     -0.500427     -0.988871
Ti       5.74460      9.89650      6.31363         0.396662     -3.853988      0.094918
Ti       5.67771      9.58518     10.59732        -0.096267     -0.139805      0.681558
Ti       9.84290      1.76042      2.00405        -1.353495     -0.733010     -1.736775
Ti       9.65265      1.86543     14.70491         2.436724      0.732108     -0.334605
Ti       9.74824     13.43872      2.12483        -0.487676      1.915554      0.034094
Ti       9.78372     13.71877     14.69630         0.751287     -0.338802      2.469231
Ti       9.66145      2.08137      6.39328         0.035746     -1.125022     -0.489511
Ti       9.66922     13.68778      6.47741         1.167354     -0.034263     -2.017816
Ti       9.70567      1.88027     10.54935         1.086439      0.001264     -0.523674
Ti       9.56350     13.45856     10.55517        -0.251492      1.734458      0.771195
Ti       9.79430      5.71379      2.04048        -0.671790      0.490561     -1.212592
Ti       9.71919      5.87318     14.91779         0.477773     -0.180955     -2.815833
Ti       9.98105      5.84574      6.16185        -1.512688     -0.865527      3.137979
Ti       9.81304      5.87860     10.55105        -0.010473     -1.386805      0.274457
Ti       9.82137      9.58522      2.29743        -1.828137      1.128800     -3.304003
Ti       9.72850      9.72136     14.58739         0.055094     -0.044668     -1.949566
Ti       9.77866      9.58449      6.47271         1.842029      0.682579     -0.148834
Ti       9.70750      9.67990     10.53296        -1.215080     -0.240532     -0.073593
O       1.79763      1.34040      0.44089         1.040255      2.176415      1.540695
O       1.80581      1.99898     13.06469         0.030352      0.303248     -1.802985
O       1.84465     14.15146      0.45058         0.631557     -1.867269      1.037264
O       1.68354     13.95783     12.55395         0.683958     -0.610599      2.716331
O      13.35781      2.09999      0.38482         1.292743     -0.748304      1.134972
O      13.76710      1.72560     13.06410        -0.083200      0.406701     -2.521561
O      13.69799     13.36408      0.36126        -0.038643      0.998467      1.368632
O      13.59720     13.70218     12.68151         0.031462     -0.439088     -0.195127
O       2.04341      2.19609      4.63351        -0.279466     -0.840860     -0.218101
O       1.66219     13.35407      4.65619         1.057235      0.502946      1.140235
O      13.49213      1.84755      4.26738         0.017764      0.203387      1.179176
O      13.42584     13.51345      4.73054         0.194283      0.323540     -3.010290
O       1.86938      2.00746      8.53487         0.020391     -0.361461     -0.398896
O       1.93062     13.42066      8.52069        -0.389247      0.394841      1.107454
O      13.96026      1.66811      8.84157        -1.104392      0.976240     -0.682264
O      13.47204     13.81471      8.69383        -0.280762     -0.359225     -0.172739
O       2.17094      5.61312      0.33824        -0.526577      0.936297     -0.324369
O       1.96953      5.49867     13.15681        -0.437814      0.328387      0.680464
O      13.63591      6.11284      0.50448        -0.037941     -0.746665      0.894912
O      13.75401      6.07315     13.06850        -0.019666     -1.074177      0.124585
O       2.22501      5.92691      4.93780        -0.564519     -0.457748     -2.146285
O      13.79833      5.45051      4.56338        -0.368900      1.820920     -0.856791
O       1.67048      5.80960      8.79838         0.677260      0.081536     -3.828118
O      13.44857      5.74483      8.93081         0.051473      0.618665     -0.894718
O       2.25795      9.69632      0.43070        -1.346622      0.706500      2.330499
O       2.33778      9.89946     12.86171        -1.313732     -0.304965      1.233560
O      13.23932      9.73581      0.43345         1.936422      0.445069      0.773824
O      13.46346      9.61495     12.80473         0.206220      0.694970      1.414021
O       1.96454      9.72500      4.74760         0.286597      0.373466     -1.273086
O      13.68511      9.71055      4.50894        -0.652236      0.138936     -0.311440
O       1.52221      9.87062      9.10646         0.492754     -0.353277     -1.997486
O      13.58476      9.56124      8.85780         0.373525      0.018809     -0.699044
O       6.32561      1.54568      0.54589        -1.694438      1.841241      0.386585
O       5.60014      1.91628     13.23577         0.415646     -0.258496     -3.130986
O       5.57072     13.74801      0.54690         0.620964     -0.047259     -2.139349
O       5.61745     13.72442     13.02884         0.963711     -0.284228     -0.119426
O       5.74930      2.01736      4.43344         0.547784      0.288406      0.735844
O       5.89209     13.29455      4.76169        -0.545946      0.439913     -1.428558
O       5.51003      2.06088      8.65128         1.421187     -1.288351      0.813941
O       5.75880     13.67175      8.93931         0.268785     -0.200151     -0.514939
O       5.78348      5.93157      0.42630         0.116540     -0.517752     -0.309210
O       5.83660      6.23482     12.85959        -0.155414     -2.028566      1.936027
O       6.03565      5.70170      4.73028        -0.660156      0.010799     -3.334185
O       6.18126      6.11256      8.88600        -0.326866     -0.683940     -2.359697
O       5.95103      9.97696      0.19093        -0.188556     -1.259789      1.533671
O       5.90409      9.69186     12.72307        -0.082735     -0.296887      2.662888
O       5.60207      9.92635      4.53267         0.889222     -0.047488      1.724436
O       5.86890      9.35343      8.79653        -0.015587      1.217660     -0.368649
O       9.70239      1.58590      0.16821         0.023840      0.764154      2.205426
O       9.79896      1.77220     12.78143        -0.688373      0.306881      1.490616
O       9.53052     13.58755      0.29915         1.166207     -0.277729      1.336797
O       9.47975     13.52225     13.07823         0.033498      0.097299     -2.984148
O       9.56618      2.14006      4.55220         0.953900     -0.469200      2.086870
O       9.69072     13.86789      4.61025         0.210296     -1.109679      1.210241
O       9.67146      1.81822      8.66213         0.119516      0.236220      0.990340
O       9.54210     13.45341      8.80698        -0.203351      0.457182     -1.341006
O       9.64019      6.24456      0.18864        -0.032139     -1.661369      3.694014
O       9.85775      5.33603     13.11911        -0.500382      1.475110      0.677684
O       9.60293      5.78018      4.45204         0.630737     -0.174618     -1.397904
O      10.26200      5.49893      8.84077        -2.855169      2.672785      0.863555
O       9.51210      9.92997      0.46201         0.767703     -1.262076      1.858003
O       9.84004      9.50678     12.49308        -0.517081      1.128753      2.547930
O       9.80866      9.79653      4.58872         0.094483     -1.223320      0.244412
O       9.85466      9.64466      8.57543        -0.806617      0.574685      0.977504
O       4.02840      1.75843      2.31464        -2.399276     -0.173834     -0.271353
O       3.76194      1.67056     14.92919         0.922496      0.413799      1.777704
O       4.04363     13.80154      2.57404        -2.980125     -0.175558      0.872495
O       3.82046     13.61015     14.66921        -2.713183      1.065300      1.208743
O      15.47142      1.63786      2.48603         3.384269      1.680359     -0.402447
O      15.49587      1.95688     15.16028         0.223064      0.275754      0.337716
O      15.58116     13.42987      2.48394         0.663078      0.877835     -0.083421
O      15.40021     13.11201     14.54902         3.556964      1.307866      0.972801
O       3.90831      1.94593      6.73353         0.645079     -0.493074     -1.098150
O       3.85819     13.76579      6.72078         0.748121     -1.017854     -0.584804
O      15.55849      1.76590      6.64046        -0.173334      1.058454     -0.835542
O      15.34413     13.42955      6.84358         1.831028      0.722717     -1.067600
O       3.75407      1.99101     10.67929         1.334422     -0.298498      0.506787
O       3.69472     13.52067     10.87539         1.851757      0.263837      0.030589
O      15.60623      1.85305     10.87555         1.101182      0.322084     -0.123187
O      15.46329     13.42439     10.72638         0.009279      0.916481     -0.035572
O       3.79937      5.79033      2.53178         0.046134     -0.050942      0.192568
O       3.98489      5.58728     15.05820        -1.882311      0.583926      0.181315
O       0.05287      5.80272      2.64593         0.589099      0.338938     -0.358001
O      15.59274      5.84602     15.22537         0.746325     -0.147169      0.116139
O       4.24228      5.85935      6.99549        -4.144826      0.289712     -0.055281
O      15.45441      5.83072      6.97507         0.959702     -0.221754     -1.054848
O       3.86794      5.60402     10.77310        -0.261608      0.687471     -0.119721
O      15.59624      5.64396     10.85263        -0.020450      0.868082      0.371363
O       4.01538      9.60407      2.62977        -0.555932      1.329050     -1.828757
O       3.83061      9.81177     15.15472         3.274863     -0.146899     -0.211435
O       0.02554      9.88532      2.41956         0.120594     -0.360461     -0.396191
O       0.06300      9.60113     15.01450        -0.712284      1.401544     -0.385892
O       3.68900      9.75394      7.03347         4.003350     -1.363864     -0.864709
O      15.53242      9.69662      6.65784        -0.297590      0.162103      0.574660
O       3.91484      9.92070     10.74913         0.449899     -0.631510     -0.444788
O      15.56347      9.71201     11.27090        -2.413710     -0.139146     -0.474921
O       8.12525      2.03780      2.58731        -4.822734     -1.057206     -0.370920
O       7.81738      2.06598     14.92495        -0.837993     -0.164542     -0.191011
O       7.74353     13.72603      2.60050         0.861504     -1.080408     -0.367163
O       7.58713     13.55136     15.09134         1.071654      0.594007     -0.886232
O       7.65650      2.04099      6.98257        -0.026459     -0.660174     -2.520484
O       7.72175     13.29215      6.63494         0.656731      0.685056      0.370540
O       7.80297      1.81297     11.00658        -0.825487      0.153826     -1.260227
O       7.64623     13.60207     11.07172         0.639195      0.080784     -0.548413
O       7.73069      5.69416      2.26479         2.162358      0.606853      0.433065
O       7.67839      6.18267     14.81193         2.039959     -0.913671      1.247418
O       7.97634      5.60382      6.63045         0.918688      0.476442     -0.233758
O       7.89502      5.75238     10.83067         0.882983     -0.055752      0.448760
O       7.71308      9.48590      2.57714        -0.105595      1.284756     -0.674460
O       7.86739      9.58300     14.78325        -4.190452      0.250995      0.056321
O       7.74716      9.81573      6.60852        -0.177658     -0.110810     -0.539854
O       7.82497      9.53587     10.68049         0.090099      0.607942     -0.158625
O      11.48850      2.33180      2.11860         2.763241     -0.765177      1.737656
O      11.57350      2.08390     14.91213         1.000700     -0.503829      0.114401
O      11.58084     13.78231      2.49746         0.103089     -1.094889     -0.617729
O      11.66781     13.71306     14.78160        -0.208407     -0.458943      0.325284
O      11.70947      1.70733      6.43900        -1.350115      0.368866      0.057947
O      11.57812     13.98499      6.80324        -1.952817     -1.702225     -0.720000
O      11.64392      1.69777     10.88605         0.195647      0.421368     -0.481391
O      11.62885     13.54739     10.88319        -2.074103     -0.297205      0.017169
O      11.63356      5.66822      2.67204        -0.815337      0.406025     -0.964692
O      11.73194      5.90162     15.20335        -0.271482      0.331663     -0.896191
O      11.85393      5.93542      6.78667        -1.246544     -0.572732     -1.282131
O      11.63845      5.87927     11.10264         0.256920     -0.143241     -0.159731
O      11.66511      9.88193      2.38396        -0.448276     -0.677239      0.712517
O      11.52362      9.76723     14.83009         3.487931      0.309415      0.299036
O      11.69815      9.40982      6.81323        -1.773485      0.632708     -1.033634
O      11.73050      9.66595     10.77842        -4.331347     -0.360566      0.074279
O       1.86963      3.85714      2.26503         0.316097     -1.671643      0.201881
O       1.91879      3.61429     15.33718         0.025324      3.829734      0.703276
O       2.06298     15.43153      2.97597        -1.225354      1.169645     -1.322689
O       1.64561     15.59344     14.87617        -0.181642     -0.263349     -0.320640
O      13.68429      3.97379      2.68119         0.349219     -1.811742     -1.318075
O      13.65535      4.00056     15.19751         0.363250     -1.020124     -0.966615
O      13.73505      0.00263      2.15657        -1.180194     -1.441948      0.886272
O      13.64379      0.00401     15.12730         0.031085     -1.251798     -0.907018
O       1.98367      3.92999      6.71764        -0.433757     -0.212804      0.482702
O       1.90734     15.54688      6.69714        -0.156695      0.191758     -0.428361
O      13.62338      3.86103      6.49059        -0.046547     -2.466602      0.702668
O      13.52837     15.53708      6.48793         1.144675      1.388599      0.333209
O       2.01266      3.79603     10.70796        -1.443236     -0.506209      0.296586
O       2.02548     15.54242     10.60149        -0.569276      1.328495     -0.466872
O      13.40789      3.95089     10.77997         1.233075     -2.607821      0.449884
O      13.49307     15.48523     10.80131         0.927435      2.590799      0.389736
O       1.88419      7.84909      2.73568         0.610921     -0.124289     -1.353331
O       1.99394      7.77043     15.00140         0.269161     -1.387842      0.368873
O      13.36106      7.69179      2.70274         0.545086      0.863875      0.009763
O      13.70381      7.87194     15.11426        -0.350577      0.256298     -0.237373
O       1.99806      7.86319      6.71056        -0.366267     -2.659045      1.353656
O      13.63827      7.78551      6.77714         0.456942     -1.152898     -0.446096
O       2.10075      7.75283     10.77613        -0.818383      1.228863      0.616891
O      13.72745      7.69772     11.07992        -0.486896      1.217813     -1.128972
O       2.28442     11.80652      2.55199        -0.843066     -0.915007     -0.895422
O       1.88641     11.71196     15.01606         0.100477      3.452368      0.553578
O      13.59784     11.76569      2.41158        -0.505434     -1.064674      0.562540
O      13.59820     11.53068     15.14425         0.295410      0.252626     -1.794245
O       1.95321     11.47452      6.75130        -0.140958      4.094750      0.206001
O      13.25345     11.52576      6.70262         0.435010      0.897754      0.230978
O       1.89855     11.77292     10.97045        -0.768108     -0.618724      0.407243
O      13.43906     11.66741     10.84898         0.713358     -0.503939     -0.013234
O       5.58762      3.76262      2.38192         1.314464      0.230210      0.070464
O       5.99015      3.99998     15.09861        -0.281388     -2.056096     -0.066490
O       5.95097      0.04380      2.82839         0.313343     -1.174004     -0.906188
O       5.79466     15.54619     15.20004         0.219241     -1.101748     -0.630332
O       5.80293      3.95865      6.69654        -0.150136     -3.061189     -0.178348
O       5.91358     15.44322      6.49564         0.285212      2.661581      0.381036
O       5.90282      3.81660     10.89676        -0.080931     -0.378370     -0.248462
O       5.48227      0.07645     10.78105         0.923533     -0.812485      0.007141
O       5.80817      7.63875      2.65050         0.410746      0.122724     -0.357944
O       5.68284      7.79275     15.21355         0.533473      2.137337     -1.301331
O       5.96409      7.73920      6.72655        -0.002822      1.635007     -0.843607
O       5.65264      7.60710     10.93739         0.114008      2.800019     -0.743228
O       5.81556     11.73977      2.36524         0.359932     -0.734473      0.183509
O       5.65645     11.71238     15.17833         0.499238     -1.098796     -1.043272
O       5.61248     11.61164      6.80865         0.831797      0.720128     -0.221651
O       5.86475     11.68980     11.02797         0.825293     -0.867945     -1.343911
O       9.57473      3.84663      2.28573         1.196519      2.174492     -0.480612
O       9.79129      3.91629     15.42891        -1.311682      0.575530     -1.722614
O       9.64909     15.51897      2.63230         1.477084      0.491671     -1.677719
O       9.51824      0.06120     14.97535         0.357265     -2.375067     -1.174841
O      10.21993      3.84211      6.64068        -1.886471      0.255446     -0.887260
O       9.30677      0.04560      6.64597         0.962667     -0.645378      0.003801
O       9.86713      3.73211     10.92536        -0.787510      0.323055     -0.896060
O       9.68862     15.32306     10.98744        -0.227745      0.997235     -0.559815
O       9.92022      7.66170      2.54130        -1.220279      0.595318     -0.686575
O       9.75196      8.01661     15.05088         0.117619     -3.562920     -0.156542
O       9.76438      7.55005      6.76414        -0.301811      1.789482     -0.989223
O       9.76550      7.71044     10.83864         0.247082     -0.313167     -1.137279
O       9.61426     11.53424      2.55183        -0.015042      2.157160     -0.233352
O       9.48870     11.51303     14.77173         0.189908      3.019665      0.783101
O       9.95779     11.70103      6.54937        -0.729971     -0.291683      0.239297
O       9.63221     11.64578     10.95918         0.405880     -1.214561     -0.396112
