  # total energy = -7880.60471702 
CRSYTAL
PRIMVEC
    15.464    0.0000000000000000    0.0000000000000000
     0.0000000000000000   15.464    0.0000000000000000
     0.0000000000000000    0.0000000000000000   17.350608
PRESSURE
-0.953923 -0.944334 -1.40794 -0.459731 -0.081338 0.071975
PRIMCOORD
320 1
Pb       3.82157      3.64744      4.25460         0.176579      0.459977      0.036981
Pb       3.73347      3.74692     17.31410         0.293396      0.449651     -0.083200
Pb       4.00595     15.35757      4.30671        -0.318923     -0.159636      0.053439
Pb       3.76956      0.04229      0.06423         0.086234     -0.020052     -0.674469
Pb      15.19115      3.82505      4.23170         0.339003      0.394089     -0.328804
Pb      15.45752      3.93768     17.28553        -0.321032     -0.256042      0.865009
Pb      15.34846     15.45543      4.27840         0.203643     -0.129710     -0.057049
Pb      15.39919      0.04554     17.33702        -0.093123      0.033017     -0.400463
Pb       3.90053      3.79531      8.66759        -0.334863      0.040469     -0.572305
Pb       3.88674      0.06584      8.54261        -0.093450     -0.148857      0.125398
Pb       0.07327      4.03243      8.67941        -0.014113      0.041372     -0.529434
Pb       0.08050      0.06984      8.69991        -0.080850     -0.085585      0.062036
Pb       3.91495      3.97260     13.07928        -0.450857     -0.507506     -0.188259
Pb       3.77597      0.17152     12.95417         0.394013     -0.413251      0.344509
Pb      15.35520      3.85173     13.05371         0.208331     -0.437242     -0.625653
Pb      15.42105     15.31698     13.02429         0.152464      0.501136     -0.386461
Pb       4.03809      7.67120      4.32491        -0.371267     -0.225923     -0.295493
Pb       4.05052      7.86643     17.19593        -0.536846     -0.819691      0.342467
Pb       0.12999      7.75986      4.39474        -0.298418     -0.233353     -0.442880
Pb       0.05906      7.74670     17.31114        -0.549024     -0.164787     -0.205692
Pb       3.66563      7.55730      8.64976         0.399307      0.257512     -0.285270
Pb      15.20681      7.80003      8.65365         0.426621     -0.304214     -0.350284
Pb       3.84194      7.77995     12.94686         0.061190     -0.121076      0.124277
Pb      15.43096      7.48755     12.97001        -0.741453      1.130242      0.914727
Pb       3.97443     11.46742      4.35405        -0.017854      0.516076     -0.051712
Pb       3.90636     11.57711     17.28618        -0.015522     -0.212520     -0.020734
Pb       0.02146     11.65387      4.28715        -0.245856     -0.197077      0.294952
Pb      15.40308     11.59838      0.03957        -0.162085     -0.250368     -0.211729
Pb       3.92901     11.49831      8.81179         0.489605     -0.100643     -0.763811
Pb       0.11970     11.72125      8.64516        -0.843925     -0.457257      0.494673
Pb       3.85968     11.62166     12.90698         0.043613     -0.104586      0.402397
Pb       0.01014     11.30061     13.18831        -0.371991      0.152203     -0.670444
Pb       7.83368      3.82373      4.26292        -0.921628     -0.231257     -0.056448
Pb       7.67212      3.72859     17.28248         0.065432      0.673638     -0.216071
Pb       7.67174     15.45759      4.29951        -0.107134     -0.022336     -0.276648
Pb       7.73020      0.05666     17.33348        -0.113412     -0.285978     -0.761040
Pb       7.77588      3.81824      8.56041        -0.837978     -0.237171      0.186635
Pb       7.82290     15.27169      8.59851        -0.277236     -0.000111      0.042477
Pb       7.76860      3.98819     13.06150         0.159470     -0.365344     -0.432713
Pb       7.58321      0.00865     12.92411         0.035800      0.236105      0.103333
Pb       7.80717      7.66186      4.30026        -0.187629      0.348634      0.008866
Pb       7.73670      7.82573     17.26561        -0.072047     -0.515968      0.350839
Pb       7.70152      7.70341      8.65272        -0.461211      0.252821     -0.184919
Pb       7.87281      7.77513     12.95669        -0.112253     -0.296426     -0.141377
Pb       7.75011     11.60183      4.39546        -0.605278     -0.182074     -1.009324
Pb       7.72438     11.74214     17.32467         0.168056     -0.765601     -0.457923
Pb       7.91017     11.51165      8.64571        -0.528533      0.207431      0.187593
Pb       7.69239     11.66340     12.90370        -0.432546     -0.468564      0.208823
Pb      11.61232      3.83867      4.25924         0.233751      0.054629     -0.732967
Pb      11.50388      3.74930     17.19617         0.326324      0.500035      0.489187
Pb      11.50045      0.05075      4.36176         0.516434      0.380170     -0.437454
Pb      11.58112     15.36066     17.24760         0.308222      0.140190     -0.133925
Pb      11.37626      3.84254      8.57680         1.085765     -0.577665      0.351477
Pb      11.65999      0.02694      8.56586        -0.328992     -0.133002      0.638091
Pb      11.45323      3.88792     12.89513         0.205057     -0.020522      0.126622
Pb      11.39689      0.04759     12.96084         1.086727     -0.161836      0.220114
Pb      11.42148      7.72027      4.33134         0.575946      0.518306     -0.747127
Pb      11.42119      7.64331      0.04168         0.430241      0.241359      0.053886
Pb      11.48530      7.72228      8.55724         0.377217      0.439570     -0.464945
Pb      11.59135      7.56468     12.91547         0.182915      0.660599      0.350099
Pb      11.53818     11.78952      4.29501         0.436482     -1.621422      0.038169
Pb      11.61491     11.60592      0.04346        -0.004509     -0.383394     -0.258820
Pb      11.78897     11.72376      8.73817        -0.343488     -0.021240     -0.075610
Pb      11.46253     11.52623     13.05666         0.474201     -0.457920     -0.199475
Ti       1.82643      1.87752      2.34374         0.100519      0.589567     -1.000604
Ti       1.89416      1.89488     15.32506        -0.057386      0.146081     -0.241236
Ti       2.08115     13.52682      2.33668        -0.971760     -0.416901      0.412897
Ti       1.91833     13.47759     15.43800         0.201077      0.490999     -1.194889
Ti      13.42624      1.88415      2.17701        -0.237746      0.459190      2.553472
Ti      13.52551      1.93082     15.17386         0.162786     -1.156380      1.222778
Ti      13.50589     13.51444      2.35536         0.280131     -1.145480     -0.916027
Ti      13.50516     13.47228     15.27421        -0.026631     -0.117782     -1.159227
Ti       1.82006      1.92789      6.52331         1.206517      0.677662      0.195266
Ti       1.96741     13.50347      6.65284         0.981698      0.302561     -1.200344
Ti      13.54900      2.04571      6.78872        -1.006719     -0.618016     -0.959107
Ti      13.62065     13.62153      6.73362        -1.318587     -0.515085      1.389025
Ti       1.85358      1.96144     10.98731        -0.051715      0.124978      1.064026
Ti       1.98906     13.54228     11.01336        -1.187624      0.146133     -0.544989
Ti      13.44881      1.89063     10.96211         0.745772      0.482121      0.356803
Ti      13.56703     13.49139     11.11173        -0.326694     -0.345579     -1.071859
Ti       1.98886      5.71461      2.31353        -1.495728      0.588633     -0.388605
Ti       1.88289      5.72886     15.39987         0.592487      0.409448     -0.821338
Ti      13.47406      5.81728      2.22863        -0.366410     -0.241316     -1.038406
Ti      13.44062      5.74692     15.43641        -0.063756      1.105364     -0.030167
Ti       1.94290      5.79635      6.57237        -1.182049     -0.425635      0.228397
Ti      13.43003      5.79026      6.61799         1.708760      0.255152      0.673135
Ti       1.77973      5.83656     11.06997         1.581132     -1.698412     -1.564710
Ti      13.40291      5.79205     10.83942         0.454289     -0.595505     -0.157698
Ti       1.97220      9.66129      2.32744        -0.178943     -0.327580      0.692963
Ti       1.90136      9.63823     15.32646        -0.327713     -0.390541      0.096873
Ti      13.62795      9.65369      2.28272        -1.972565     -0.508172     -0.071695
Ti      13.40161      9.55905     15.38609         0.286344     -0.348188     -1.224833
Ti       1.81114      9.66436      6.68517         0.548379     -0.816209     -0.426364
Ti      13.45109      9.74216      6.59267        -0.427668     -0.356863      0.716701
Ti       1.85589      9.66834     10.97728         0.119183     -0.182356      2.511443
Ti      13.54042      9.65500     10.94899        -0.093344     -0.197167      0.331797
Ti       5.68558      1.87617      2.14813         0.942234     -0.116185      2.252224
Ti       5.85356      1.93031     15.30703        -0.256382     -0.893966     -0.371304
Ti       5.86151     13.47361      2.20934        -0.101077     -0.248426      4.252529
Ti       5.75403     13.58146     15.34081         0.535956      0.074738     -0.610945
Ti       5.77815      1.85554      6.51789        -0.339140      0.591416      0.404221
Ti       5.82428     13.38758      6.70867        -0.414668      0.243353     -0.644167
Ti       5.78666      1.95754     10.97857         0.561839     -0.213992      0.128405
Ti       5.71682     13.57201     10.89397         1.655808     -0.816703      0.794156
Ti       5.77947      5.70299      2.30957        -0.700434     -0.088410     -1.711240
Ti       5.78212      5.74115     15.33659        -0.016298     -0.434728      0.423270
Ti       5.75644      5.72351      6.59319        -0.151301     -0.232119     -1.354529
Ti       5.69457      5.74908     11.03957         0.799197      0.493290     -0.957364
Ti       5.86584      9.53659      2.25691         0.177733      1.660121      1.336683
Ti       5.80759      9.70200     15.15532         0.079092      0.571806      0.857136
Ti       5.73479      9.56578      6.61452         0.367158     -0.115493      2.086757
Ti       5.76575      9.63810     11.07503         0.385675      0.067278     -0.752545
Ti       9.61013      1.88238      2.22639        -0.037036     -0.376232     -0.240235
Ti       9.73754      1.87062     15.25836        -1.748692      0.771270     -1.504931
Ti       9.64822     13.53067      2.32521        -0.349649      0.175025      0.028117
Ti       9.64669     13.53549     15.20127        -0.778951     -0.913011     -0.381360
Ti       9.56209      1.87673      6.63064         1.048258     -0.230849      1.038263
Ti       9.73753     13.50448      6.49680        -0.105236     -0.429799      1.615472
Ti       9.67801      1.86127     10.94890        -0.415599      0.442542      0.499664
Ti       9.63894     13.41980     11.15275         0.359150      0.080663     -1.459047
Ti       9.51845      5.72367      2.26575         1.604517      0.999232     -0.118706
Ti       9.59416      5.76718     15.39698        -0.517219      0.343031     -0.931195
Ti       9.60075      5.75826      6.57074         0.040626      0.753424      0.355485
Ti       9.61620      5.73797     10.74964        -0.725653      0.133528      1.953060
Ti       9.66339      9.69258      2.35835         0.563908     -0.808530     -0.710452
Ti       9.63399      9.68758     15.39898        -0.273898     -1.219796     -0.582042
Ti       9.60230      9.67499      6.60002         0.960067     -0.325047      0.067798
Ti       9.70557      9.59297     10.92128        -0.350862      0.097623      1.106629
O       1.93964      1.90257      0.52563        -0.074225     -0.190575      0.917078
O       1.78322      1.98094     13.55459         0.616307     -0.618856      0.761923
O       2.12680     13.40574      0.54204        -0.598338      0.364466      1.254636
O       1.95587     13.58201     13.61062        -0.202463     -0.094160      1.578354
O      13.36365      1.81575      0.49718        -0.068670      0.067143     -1.683678
O      13.49114      1.74298     13.46204         0.047419      0.421927     -0.202519
O      13.42109     13.24303      0.57047         0.235478      0.801257      0.213567
O      13.53838     13.59333     13.43500         0.357480     -0.328076      1.651288
O       1.89622      1.91234      4.74674         0.005357      0.173208      0.426739
O       1.99432     13.57853      4.83062        -0.242901     -0.246282      1.623865
O      13.43341      1.94631      4.98315         0.146039      0.164449      0.068733
O      13.61413     13.78568      5.03369        -0.375659     -0.469191     -1.639145
O       1.88121      1.92406      9.23170         0.003099      0.004112     -0.548003
O       1.94773     13.46681      9.20483         0.217577      0.050124      0.825980
O      13.50791      2.00008      9.17330         0.002968     -0.326263      0.499177
O      13.43751     13.38977      9.23247         0.282658      0.456429      1.321043
O       1.82231      5.64444      0.53325         0.395558      0.260277     -0.133328
O       1.75520      5.64735     13.60588         0.497404      0.024903     -0.025111
O      13.42804      5.60570      0.41713         0.035140      0.256471      0.074474
O      13.47776      5.95080     13.67889        -0.006323     -0.285147     -0.191901
O       1.86146      5.94781      4.83075         0.180120     -0.238105     -1.103549
O      13.48245      5.84296      4.84827        -0.345331     -0.580742     -0.369717
O       1.98194      5.57702      9.23430        -0.243899      0.856321      1.460898
O      13.59696      5.77517      9.07609        -0.313140     -0.116737      0.683966
O       1.96405      9.76760      0.57872        -0.077079     -0.214190     -0.074607
O       1.93831      9.67832     13.58401         0.031449      0.161874     -0.145053
O      13.64494      9.80758      0.48174        -0.064881     -0.044137      0.232629
O      13.37174      9.36610     13.57780         0.188124      0.393816      0.808508
O       1.77189      9.68463      4.90908         0.253180     -0.519727      0.205537
O      13.46288      9.67944      4.85968         0.223174     -0.164057      0.126765
O       1.83000      9.61745      9.29141         0.175400      0.173193     -1.907298
O      13.57268      9.68377      9.16606        -0.213813     -0.258608      0.558511
O       5.74036      1.93234      0.42346         0.522433     -0.438830     -1.036838
O       5.85465      1.75688     13.53204        -0.086771      0.307820     -0.193813
O       5.90403     13.42826      0.55402        -0.071309      0.266059     -3.253426
O       5.78747     13.61160     13.57339        -0.159700      0.006329      0.193717
O       5.70043      1.97197      4.73198         0.358773     -0.436761      0.766264
O       5.68875     13.36592      4.90712         0.539814     -0.020352      0.846603
O       5.79875      1.97955      9.20708        -0.040701      0.109855      0.326299
O       5.83364     13.47867      9.15754        -0.282125      0.190029     -0.856138
O       5.78068      5.70521      0.49953         0.065923      0.055875      0.866558
O       5.77624      5.64728     13.57747        -0.181710      0.027440     -0.812729
O       5.77123      5.70656      4.77428        -0.341915      0.268346      0.386999
O       5.67707      5.69527      9.22144        -0.179125      0.033491      0.677110
O       5.82279      9.58364      0.53780        -0.293428      0.126013     -1.210703
O       5.64248      9.80663     13.39474         0.481919     -0.683550      0.326282
O       5.84125      9.60187      4.88220        -0.089544      0.156062     -0.804261
O       5.69647      9.59775      9.31215         0.205320     -0.199492     -0.366981
O       9.61124      1.82690      0.42699         0.092518      0.024413      0.240509
O       9.75593      2.01909     13.45601        -0.069090     -0.277622      0.834487
O       9.62378     13.42663      0.54757        -0.070408      0.244043      0.084714
O       9.66520     13.37658     13.38357        -0.090765      0.402242      1.543963
O       9.48050      1.83166      4.89946         0.465104      0.183784     -0.836747
O       9.77825     13.68773      4.74700        -0.295917     -0.587226     -0.174636
O       9.79300      1.96076      9.19204        -0.745384     -0.338294     -0.576832
O       9.64474     13.29267      9.35893         0.156889      0.471317      0.162391
O       9.46348      5.79250      0.51836         0.136050     -0.153115     -0.662620
O       9.59810      5.72325     13.59802         0.045662      0.365214     -0.064747
O       9.60284      5.83727      4.79344         0.198482     -0.608539      0.012893
O       9.59254      5.77125      9.00731        -0.006762     -0.022396     -0.808555
O       9.56184      9.57768      0.56837         0.184206      0.398856      0.191363
O       9.55591      9.45010     13.63195         0.419206      0.404423     -0.175923
O       9.70957      9.55558      4.84586        -0.535825      0.331196     -0.828553
O       9.64300      9.50569      9.18909        -0.064698      0.393811     -0.812115
O       3.85591      1.72989      2.61808        -0.212912      0.848525     -0.083399
O       3.93523      1.93438     15.62106        -1.518718     -0.207491      0.205013
O       3.92195     13.42606      2.74862        -0.320841      0.400025     -0.513830
O       3.90226     13.46789     15.87923        -0.619631      0.379047     -0.558659
O      15.33830      1.90024      2.55392         0.331358     -0.077240      0.287470
O      15.42145      1.83393     15.68361        -0.280348     -0.128507     -0.007235
O      15.38066     13.51970      2.81306         0.742570      0.359543     -0.572272
O      15.36040     13.47401     15.82491         0.604646      0.189220     -0.372466
O       3.89682      1.93111      7.01480        -0.417411     -0.586674     -0.316146
O       3.86493     13.61559      7.06095        -0.123202     -0.964047      0.039882
O       0.00847      1.97403      6.93790         0.187234     -0.494663      0.313100
O      15.43790     13.49209      7.12972         1.422582      0.292050     -0.246485
O       3.91534      1.84625     11.38757        -0.494397      0.912089     -0.292152
O       3.90547     13.46075     11.38938        -1.118656      0.161171     -0.327989
O      15.41687      1.95033     11.48289        -0.525687     -0.604544     -0.723519
O       0.05970     13.65944     11.27400        -0.653607     -0.081318      0.286656
O       3.81309      5.68305      2.67853         0.713538      0.574808      0.212544
O       3.79376      5.55783     15.74072         0.242158      0.206571     -0.287918
O      15.29858      5.59346      2.50867         1.023018      0.382417      0.772192
O       0.00609      5.71823     15.75126        -0.821315      0.360140      0.219225
O       3.83776      5.75131      6.91239         0.296254      0.295990      0.529317
O       0.00991      5.70707      6.97865        -0.747143      0.183279      0.148042
O       3.78109      5.70528     11.49598         0.488214     -0.066347     -0.114292
O      15.39450      5.84334     11.34777         0.011911     -0.793109     -0.252204
O       3.91920      9.69957      2.79561        -0.781735     -0.353402     -0.502246
O       3.90225      9.68938     15.67814        -0.261112     -0.072802      0.099359
O      15.40740      9.59915      2.78255         1.601217      0.164899     -0.257628
O      15.42044      9.59403     15.64087         0.923355      0.331076      0.282413
O       3.89081      9.54716      7.01280        -0.772910     -0.007596      0.085189
O      15.40813      9.63561      7.12136         0.218714      0.167558     -0.534546
O       3.82326      9.68901     11.30839        -0.980405      0.150489      0.454246
O      15.41877      9.41892     11.54619         0.708734      0.757677     -0.508007
O       7.74822      1.68786      2.71582        -0.245858      1.090891     -0.682775
O       7.78662      1.76709     15.53794        -0.048045      0.440917      0.983203
O       7.72584     13.62989      2.79575         0.645414     -0.815856     -0.354751
O       7.68180     13.45622     15.70657         1.112668      0.579174      0.027641
O       7.71529      1.91549      7.11853        -0.466041     -0.236440     -0.414526
O       7.76964     13.29917      7.05140         0.416336      1.035724     -0.340691
O       7.85034      1.89193     11.37699        -1.300650     -0.244417     -0.178362
O       7.73762     13.41831     11.31104        -0.638859      0.800953      0.356937
O       7.59914      5.79863      2.76550         0.990788     -0.395320     -0.026308
O       7.68975      5.80965     15.59673        -0.091763     -0.254348      0.552059
O       7.73285      5.67332      6.84543         0.058910      0.057508      0.566681
O       7.69652      5.78529     11.20984         0.452907     -0.009467      0.295662
O       7.75279      9.61059      2.72999        -0.245814      0.173861      0.281145
O       7.63662      9.54068     15.73458        -0.146006      0.270876     -0.629663
O       7.70897      9.49318      7.15853        -0.017230      0.784640     -0.576512
O       7.67902      9.56311     11.39108         0.834061      0.032647     -0.078467
O      11.51046      1.91679      2.67828        -0.184909     -0.000958      0.249301
O      11.54511      1.80254     15.60308         1.275874      0.251840      0.504351
O      11.57868     13.43526      2.68676         0.164026      0.295949      0.075719
O      11.54438     13.48733     15.71507        -0.103227     -0.173292     -0.278128
O      11.53542      1.93112      7.04176         0.016358     -0.282816     -0.069181
O      11.58535     13.52115      7.04458        -0.088474      0.115040     -0.261191
O      11.54782      1.99190     11.41070         0.773267     -0.513288     -0.106755
O      11.65082     13.27254     11.51573        -0.119864      0.360152     -0.512410
O      11.48131      5.65193      2.49276        -0.541802      0.254871      0.789385
O      11.47533      5.80462     15.67491         1.063682     -0.309319      0.595983
O      11.59974      5.66992      7.10860        -1.211650      0.698691     -0.888525
O      11.52976      5.84830     11.24753         0.015776     -0.547120     -0.300270
O      11.60360      9.67713      2.68812        -0.454006     -0.024387      0.000715
O      11.54204      9.71976     15.82874        -0.283138     -0.663714      0.054625
O      11.53107      9.59449      6.96015         0.748371      0.073072      0.365417
O      11.59542      9.72621     11.35723        -0.020156     -0.303429     -0.246829
O       1.88534      3.84612      2.62938         0.245042     -1.005707      0.582660
O       1.79144      3.73781     15.78002         0.572387      0.333802     -0.199913
O       1.92806      0.04567      2.76912        -0.146130     -1.698943     -0.608536
O       1.91040     15.43339     15.99000         0.045275     -0.251718     -0.993993
O      13.34746      3.81077      2.61724         0.309000     -0.801596      0.703609
O      13.48573      3.80308     15.57030        -0.269791     -0.194590      0.078807
O      13.45457     15.36976      2.72653        -0.242330      1.071561     -0.356210
O      13.53464     15.43538     15.77543        -0.436563     -0.644203     -0.183491
O       1.90621      3.88144      6.93473         0.362922     -1.432991      0.006251
O       1.96000     15.40307      7.03322        -0.664439      0.937550      0.018888
O      13.50482      3.87284      7.06597         0.019745      0.038005     -0.221664
O      13.54404      0.05550      7.22738         0.383994     -0.367924     -0.282203
O       1.84219      3.77293     11.44254         0.175828      1.260408     -0.035193
O       1.96457      0.00739     11.38787         0.052294     -0.397251     -0.055606
O      13.42476      3.87180     11.47220         0.415692      0.315474     -0.504710
O      13.38542     15.44478     11.32903         0.231750     -0.188040     -0.286823
O       1.81154      7.70716      2.62590         0.485821      0.379864      0.111970
O       1.98548      7.69338     15.56332        -0.076769      0.119133      0.761392
O      13.42876      7.68913      2.44217         0.168340      0.064950      0.328710
O      13.50261      7.68505     15.87036        -0.124801     -0.363057      0.309961
O       1.82106      7.65048      7.06184         0.460641      1.098193      0.240148
O      13.48285      7.69258      7.07597        -0.081871      0.307331     -0.296427
O       2.01471      7.68440     11.41973        -0.286056      0.003028     -0.332133
O      13.53367      7.64273     11.23313        -0.572958      0.151593      0.148843
O       1.83928     11.62457      2.88854         0.628765     -0.304736     -1.100932
O       1.89657     11.63093     15.79003         0.125996     -0.749953     -0.320431
O      13.61319     11.50489      2.76369        -0.518852      1.465780      0.190468
O      13.43368     11.47963     15.50148         0.417413      1.759569      0.420541
O       2.00092     11.51273      7.06177        -0.214874      0.857202      0.059468
O      13.50158     11.61854      7.16597         0.214779     -0.042164     -1.024029
O       1.78406     11.58704     11.55731         0.365462     -0.114868     -0.883427
O      13.75483     11.49032     11.34418        -0.206413      0.490635      0.365323
O       5.75213      3.75619      2.46576         0.278442     -0.011676      0.721164
O       5.92010      3.77739     15.70246        -0.099149      0.376956     -0.075532
O       5.86282     15.42619      2.73662        -0.814498     -0.452515     -0.587452
O       5.83872      0.01766     15.79372        -0.298787     -0.843682      0.206570
O       5.69865      3.79437      6.83513         0.646132     -0.093552      0.717933
O       5.83642     15.34794      6.93961         0.347954      0.998231      0.153658
O       5.90373      3.80223     11.49433        -0.756106      0.601009     -0.326250
O       5.76723     15.43235     11.29180         0.479882      0.270587      0.154932
O       5.80390      7.71274      2.49977        -0.603034     -0.949868      0.950472
O       5.70704      7.58963     15.61568        -0.225053      1.618022     -0.094584
O       5.81779      7.60058      6.91384        -0.053119      0.469023      0.415521
O       5.71609      7.68901     11.44455        -0.222257     -0.681761      0.012818
O       5.93699     11.57785      2.68244        -0.234034      0.057184      0.111898
O       5.85316     11.56584     15.63859        -0.338095     -0.190272      0.119376
O       5.83295     11.49906      7.14298        -0.572078     -0.205582     -0.288894
O       5.80927     11.61555     11.27664        -0.345385     -0.062579      0.351348
O       9.48262      3.82373      2.54559         0.003105     -0.568050      0.461822
O       9.60354      3.83230     15.65140         0.099477     -0.513891      0.492230
O       9.73075     15.43429      2.62176         0.087355     -0.185049      0.094993
O       9.62625     15.40292     15.43678         0.266363     -0.773619      0.570951
O       9.65137      3.78950      6.97146        -0.295463      0.679772     -0.236480
O       9.65153     15.37163      7.01778        -0.352725      0.197482      0.015245
O       9.70632      3.84662     11.27723        -0.274336      0.990626     -0.232318
O       9.74227     15.40213     11.41572        -0.281268     -0.201352     -0.638594
O       9.61553      7.69756      2.69568         0.068594     -0.289172      0.180765
O       9.62905      7.75002     15.78427         0.062123     -0.790790      0.225956
O       9.67442      7.75707      6.83133         0.004699     -2.116807      0.787124
O       9.70116      7.67511     11.21888        -0.439958      0.015668      0.318385
O       9.68223     11.58175      2.78223        -0.604807      0.610682      0.094727
O       9.52975     11.50590     15.62887         0.244636      1.778273      0.188617
O       9.70390     11.55668      6.85362        -0.372080      0.472090      0.041820
O       9.56581     11.49444     11.51990         0.415791     -0.634651     -0.417226
