  # total energy = -7878.32940679 
CRSYTAL
PRIMVEC
    15.464    0.0000000000000000    0.0000000000000000
     0.0000000000000000   15.464    0.0000000000000000
     0.0000000000000000    0.0000000000000000   17.350608
PRESSURE
-0.116989 0.293561 5.66261 -0.283026 -0.114762 0.070038
PRIMCOORD
320 1
Pb       4.02869      3.87260      4.50179        -0.622819      0.354429     -1.198303
Pb       4.07779      3.75754     17.11229        -0.877168      0.803711      1.463060
Pb       3.77888      0.22846      4.27353         0.028478     -1.082366     -0.458627
Pb       4.03663      0.11772     17.25649        -1.201115     -0.849480      0.488147
Pb       0.21749      3.81514      4.49893        -0.392663      0.652237     -1.208906
Pb      15.38923      3.63923     17.29103         0.395437      1.295638     -0.205509
Pb      15.33848     15.44461      4.14583         0.454930     -0.290791      0.018283
Pb      15.38591     15.46228     17.33894         0.686846      0.117667     -0.748404
Pb       3.83862      3.92526      8.60715         0.161764     -0.536936     -0.030701
Pb       3.87425     15.34895      8.55394        -0.200949      0.170972     -0.217258
Pb      15.34476      3.74786      8.53262         0.479967      0.012801      0.597527
Pb      15.32545     15.38741      8.58427        -0.045753      0.083505     -0.007806
Pb       3.75063      3.72174     12.83936         0.999819      0.098226      0.352596
Pb       3.98605     15.27423     13.05205        -0.064420      0.151323     -0.287913
Pb       0.09203      4.00009     12.91314        -0.572056     -0.577808      0.089578
Pb       0.08557      0.16428     12.93733        -0.515098     -0.781193      0.328474
Pb       3.71176      7.83087      4.21542         0.096602     -0.011697      0.225102
Pb       3.59906      7.62652      0.00433         1.067062      0.065106      0.897205
Pb      15.30217      7.72128      4.23297         0.850633     -0.218874      0.302919
Pb      15.38738      7.69534     17.23934        -0.103536     -0.049703      0.425478
Pb       4.01173      7.88779      8.66001        -0.151827     -0.309773     -0.414011
Pb       0.20976      7.56601      8.81274        -0.579185      0.364998     -0.469651
Pb       3.88470      7.66939     12.84953         0.437848      0.247191      0.958834
Pb       0.08431      7.92220     12.82539        -0.222395     -1.012120      1.444186
Pb       3.94464     11.68805      4.31191        -0.675739     -0.650177     -0.022372
Pb       3.98455     11.53302     17.30113        -0.731014      0.112545      0.261746
Pb      15.24763     11.63909      4.32187         0.687339     -0.387560      0.055890
Pb      15.46247     11.63776     17.25739         0.109646     -0.775525      0.000110
Pb       3.84538     11.61806      8.72585        -0.207744      0.024160     -0.955507
Pb      15.23725     11.53820      8.50765         0.940461     -0.134903      0.854096
Pb       3.84091     11.45015     13.03227        -0.034771      0.559104     -0.309708
Pb      15.38991     11.73995     12.74497         0.094427     -0.260283      0.775485
Pb       7.67939      3.78119      4.44344        -0.115359      0.730308     -1.119731
Pb       7.78571      3.88242     17.32653        -0.643812      0.031182     -0.272842
Pb       7.83702     15.44640      4.22100        -0.348909     -0.671902      0.476879
Pb       7.60305      0.07298      0.12671         0.508637     -0.838965     -0.805822
Pb       7.83839      3.94304      8.52372        -1.068166     -0.373333      0.137887
Pb       7.73417      0.12072      8.59372        -0.054962     -0.296963     -0.096216
Pb       7.79096      3.75178     12.95461        -0.763554     -0.236132     -0.600025
Pb       7.98453      0.01040     13.14044        -1.685220     -0.341022     -1.168999
Pb       7.72600      7.88601      4.29419        -0.491459     -1.061664      0.266343
Pb       7.82493      7.70731      0.00127        -0.789548     -0.208853     -0.033428
Pb       7.90423      7.63842      8.71154        -1.078949      0.709285     -0.217220
Pb       7.69756      7.64996     12.99994        -0.729800      0.715829     -0.451572
Pb       7.74414     11.65216      4.31289        -0.654804     -0.390818     -0.158569
Pb       7.64000     11.42306     17.30770         0.350890      0.149218      0.049001
Pb       7.60231     11.73970      8.51203        -0.076426     -1.297376      0.438815
Pb       7.76048     11.46853     12.91334        -0.058727      0.035064      0.033204
Pb      11.36653      3.77576      4.49904         0.890245      0.552026     -0.979154
Pb      11.49227      3.96870      0.00780         0.708787     -0.223451     -0.583689
Pb      11.65886     15.34872      4.32430        -0.328391      0.254625     -0.315493
Pb      11.54602      0.08063      0.14701        -0.048921     -0.125169     -1.022750
Pb      11.71979      3.92179      8.80500        -0.088266     -0.521957     -0.592948
Pb      11.40719     15.36150      8.45600         0.522899      0.285496      0.297620
Pb      11.65714      3.90252     13.10344         0.431474     -0.636905     -0.305888
Pb      11.50877     15.32598     13.18135         0.923998      0.327856     -0.723587
Pb      11.59485      7.64876      4.18640        -0.045239      0.279486      0.009622
Pb      11.58643      7.62714     17.22307         0.332650      0.656034     -0.240742
Pb      11.56968      7.53666      8.78681         0.335426      0.854558     -0.492980
Pb      11.37915      7.65297     13.06154         1.032168      0.674699      0.142700
Pb      11.50263     11.61235      4.29376        -0.216114     -0.324961     -0.324758
Pb      11.47809     11.70549     17.26719         0.403851     -1.082909     -0.310737
Pb      11.26777     11.51690      8.53127         0.860033     -0.336384      0.137850
Pb      11.60861     11.65953     12.74457        -0.029751     -0.225224      0.878785
Ti       1.92687      1.93556      2.22657         0.803980      0.352471      2.025115
Ti       1.93825      1.95304     15.25870        -0.380658     -0.259115      4.222953
Ti       1.81794     13.43250      2.26983         1.622717      0.534055      2.268515
Ti       2.00937     13.55747     15.32207        -0.220569      0.360914      2.215362
Ti      13.53957      2.00226      2.33592        -0.478131      0.236544      2.624092
Ti      13.45440      1.86508     15.33794         0.503285      0.733602     -0.361713
Ti      13.39654     13.42933      2.15420         0.035683      0.769939      1.330235
Ti      13.61325     13.46915     15.30045        -0.885672      0.572775      1.597640
Ti       1.87364      1.90592      6.59367         1.051573     -0.061091      1.809332
Ti       1.83654     13.49923      6.63836         0.400890     -1.109436      0.234971
Ti      13.48095      1.85258      6.61615        -0.645315     -0.269716      1.577756
Ti      13.46061     13.36699      6.63270        -0.427021      0.931157      1.402088
Ti       1.92579      1.80621     10.85005         0.337860      0.623649      0.672766
Ti       1.92467     13.50392     11.01582         0.244186     -0.464978     -0.584324
Ti      13.55749      1.87010     11.05547         0.132346      0.202337      0.498444
Ti      13.45724     13.57327     10.79894         0.932432      0.705084      0.906608
Ti       1.95089      5.74200      2.33499        -0.424468      0.143319      0.966621
Ti       1.97429      5.79553     15.32190        -0.901143     -0.933052      1.710566
Ti      13.49578      5.73972      2.39611         0.632813     -0.485004      1.552011
Ti      13.52477      5.75615     15.27032         0.905608     -0.276957      1.891991
Ti       1.87977      5.81299      6.67656         0.554806     -0.059215      1.708513
Ti      13.48750      5.78750      6.72488         0.036760      0.076529     -0.052030
Ti       1.99816      5.75401     10.96531        -0.111476     -0.237108      0.795012
Ti      13.55231      5.80733     11.10525         0.159846     -1.043346      0.591847
Ti       1.76703      9.71250      2.36967         1.464385     -1.022059      0.140575
Ti       1.94228      9.67814     15.36167        -0.840420     -0.288596      1.339930
Ti      13.40481      9.71834      2.23549         0.150261     -1.667219     -1.260526
Ti      13.54336      9.67209     15.18562        -0.335191     -0.165935      1.797468
Ti       1.83063      9.64378      6.67930         1.001209      0.773022      1.019918
Ti      13.44587      9.47679      6.71962         0.284827      0.974098      1.227587
Ti       1.94501      9.58394     10.85685        -0.127715      1.639662      2.390247
Ti      13.53245      9.58167     11.01167        -0.935541      0.229565      0.180467
Ti       5.83949      1.87146      2.36800        -0.838924      0.806425      2.318558
Ti       5.80275      1.84819     15.20140         0.410152      0.443142      0.437768
Ti       5.71676     13.48337      2.31823        -0.476851      0.120145      2.125948
Ti       5.84559     13.45052     15.30735         0.055332      0.452350      0.463189
Ti       5.75055      1.90784      6.62081        -0.224841      0.015754      3.079792
Ti       5.75887     13.53239      6.46589        -0.069307     -0.321256      0.984139
Ti       5.77103      1.72752     11.01207         0.790249      1.203721      2.801009
Ti       5.85252     13.44791     10.99836         0.253799      0.753881      1.786494
Ti       5.78723      5.84050      2.38797        -0.748666     -0.285390      0.452606
Ti       5.78059      5.79660     15.26086         0.239297      0.166300      1.937500
Ti       5.68998      5.88588      6.64023         0.825968     -0.366097      2.677400
Ti       5.81316      5.68713     11.00416         0.180160      0.153083      0.205156
Ti       5.73592      9.61769      2.35308        -0.734679      0.425623      0.633311
Ti       5.76297      9.52200     15.44637         0.300044     -0.743579      0.142932
Ti       5.75207      9.66317      6.59631         0.283763      0.453515      1.288194
Ti       5.77397      9.68304     11.00072         1.382963     -0.305468      1.280634
Ti       9.74387      1.91147      2.39353        -0.740529      0.063848      3.049609
Ti       9.58029      1.84599     15.42231         0.317437      0.057905      0.676356
Ti       9.56578     13.40477      2.17863        -0.147507      0.360173      1.882448
Ti       9.65593     13.50299     15.36109        -0.662164      0.055281      1.851423
Ti       9.69602      2.03431      6.58554        -0.134719     -1.605142      2.055975
Ti       9.57277     13.46003      6.53564        -0.286514      0.590502      2.172535
Ti       9.80008      1.93622     10.95694        -1.287470     -0.675687      1.970619
Ti       9.63124     13.52653     10.84540        -1.512801      0.309623      1.364869
Ti       9.59396      5.81789      2.25954        -0.324546     -0.581895      3.845275
Ti       9.57446      5.75039     15.22386         0.349120      0.350914      2.151041
Ti       9.64624      5.84334      6.56703         0.001463     -0.039849      0.422696
Ti       9.74754      5.75698     11.08867        -1.456236     -0.359025      1.479283
Ti       9.55408      9.59673      2.29914         0.130368      0.411075      0.654110
Ti       9.65118      9.62415     15.29873        -0.058302      0.087611      1.511196
Ti       9.64304      9.53480      6.56305        -1.021083      0.736992      4.098688
Ti       9.78806      9.58220     10.93181        -1.666972      1.336378      2.307321
O       1.96566      1.96783      0.54108        -0.130979     -0.129473     -1.625558
O       1.89639      1.82537     13.62380         0.067153      0.325886     -3.658301
O       2.00974     13.38629      0.60031        -0.235691      0.132943     -1.620438
O       1.94531     13.64088     13.63174        -0.080172     -0.545632     -1.872375
O      13.47166      1.93202      0.64808        -0.240395     -0.114938     -2.284690
O      13.61118      1.97546     13.58356        -0.447029     -0.382689      0.113825
O      13.35259     13.43755      0.42937         0.207419      0.307808     -0.215316
O      13.60649     13.65625     13.60566        -0.328248     -0.223378     -1.033687
O       1.98980      2.02279      4.87242        -0.444505     -0.444758     -0.964004
O       1.64176     13.40181      4.90552         0.327162      0.262234      0.078368
O      13.42713      1.88798      4.92589        -0.048062     -0.296162     -1.681755
O      13.40297     13.41854      4.88993         0.107969     -0.088892     -0.886756
O       1.86543      1.90736      9.13025        -0.172508     -0.213849     -0.575522
O       2.01809     13.40178      9.27699        -0.054384      0.591382     -0.194856
O      13.61165      1.81847      9.30054        -0.229564      0.350765     -0.354020
O      13.50950     13.68731      9.04081        -0.219568     -0.686332      0.676479
O       2.02948      5.73564      0.61876        -0.213208      0.100713     -1.278094
O       1.94712      5.95443     13.62794        -0.056365     -0.305027     -1.640238
O      13.50705      5.68094      0.71003        -0.266101     -0.036623     -2.129941
O      13.52016      5.63678     13.57592         0.100589      0.019410     -1.920725
O       1.84183      5.72596      4.99086        -0.192742      0.031254     -1.286019
O      13.52758      5.88585      4.98088        -0.330568     -0.044638      0.493425
O       2.03996      5.69943      9.26044        -0.109033      0.310879     -1.221522
O      13.40080      5.54957      9.37920        -0.161074      0.783059     -1.137913
O       1.87765      9.54536      0.65045        -0.207329      0.535953     -0.998233
O       1.77943      9.70861     13.66127         0.095795     -0.398603     -1.467023
O      13.47614      9.64980      0.47028        -0.181864     -0.019478      1.118504
O      13.63588      9.64258     13.45669        -0.012326      0.192550     -0.415651
O       2.00047      9.64911      4.97535        -0.483894      0.057823     -1.211343
O      13.56098      9.46020      5.01984        -0.527511      0.206259     -1.550540
O       1.90479      9.61178      9.18779         0.094861      0.110036     -1.797741
O      13.40420      9.63943      9.30837         0.138270     -0.062888     -0.836968
O       5.89904      1.73118      0.67292         0.062345      0.657690     -2.015796
O       5.75488      1.87452     13.47270         0.076960      0.049501      0.129186
O       5.67887     13.56914      0.61510         0.063618     -0.147834     -1.845894
O       5.67134     13.66721     13.59460         0.424368     -0.913580      0.028620
O       5.67141      1.97251      4.95737         0.446912     -0.003514     -3.115264
O       5.85189     13.54762      4.72632        -0.255841     -0.128449      0.225258
O       5.91855      1.83079      9.35321        -0.046795     -0.191408     -3.018475
O       5.92800     13.40589      9.27801        -0.536823      0.353952     -1.143595
O       5.67195      5.88662      0.66984         0.428479     -0.528068     -0.472148
O       5.76025      5.92284     13.56786         0.136220     -0.169588     -1.452552
O       5.72679      5.70977      4.97539         0.171940      0.165579     -1.978242
O       5.69803      5.77267      9.25280         0.079257     -0.161470     -0.312575
O       5.84293      9.62835      0.61389         0.097721      0.094138     -1.412039
O       5.93585      9.52714     13.73188        -0.341923      0.121496     -1.105374
O       5.54910      9.72767      4.89661         0.672755     -0.439283     -0.952456
O       5.82500      9.76005      9.30519        -0.365569     -0.294932     -1.366230
O       9.56680      1.96889      0.73127        -0.059257      0.030393     -3.155992
O       9.52109      1.70112     13.68761         0.739712      0.432839     -0.843578
O       9.57898     13.30599      0.46432         0.326150      0.539331     -0.492791
O       9.62126     13.81583     13.64224         0.568741     -0.541161     -0.887138
O       9.77292      1.91087      4.88652        -0.060967      0.029591     -1.555597
O       9.65279     13.40729      4.84346         0.152863     -0.096082     -1.562752
O       9.76449      1.88229      9.26601        -0.197518      0.535986     -1.662661
O       9.44939     13.52859      9.12789         0.476735     -0.235768     -0.695798
O       9.67286      5.73769      0.57991        -0.049323     -0.238491     -2.577605
O       9.57959      5.76547     13.51568         0.269483      0.220487     -1.753337
O       9.77750      5.91254      4.85623        -0.215604     -0.140000     -0.567304
O       9.80912      5.90864      9.39063        -0.130580     -0.696582     -1.936327
O       9.48048      9.60018      0.58653         0.028485      0.061890     -1.191462
O       9.51883      9.68471     13.58973         0.321836     -0.346058     -0.983653
O       9.61944      9.65718      4.91896         0.239413     -0.126985     -3.629958
O       9.66287      9.51884      9.24725         0.308413      0.181815     -1.498204
O       3.88876      1.97559      2.70034        -0.113002     -0.163509      0.108185
O       3.92240      1.95720     15.67539         0.183846     -0.436345     -0.399088
O       3.83556     13.51236      2.85866         0.142375     -0.029861     -0.695645
O       3.90236     13.48810     15.75808        -0.246550     -0.235918     -0.107373
O      15.45473      1.79094      2.60262        -0.023059      0.230222      0.337496
O      15.43235      1.90222     15.72317         0.048446     -0.201794      0.282339
O      15.31679     13.40268      2.58382         0.185369      0.334483      0.033603
O       0.01803     13.55128     15.83667         0.020708     -0.346982     -0.318160
O       3.78839      1.92366      6.94560         0.217963     -0.491917      0.507972
O       3.88637     13.40480      7.07193        -0.214769      0.817099     -0.403596
O      15.37192      1.98583      6.86706         0.467963     -0.603917      0.392925
O      15.35803     13.48105      7.04336         0.339374     -0.020894     -0.100646
O       3.81834      1.86602     11.22611        -0.209987      0.086589      0.431484
O       3.87718     13.41281     11.48595        -0.731101      0.306624     -0.226307
O       0.05820      2.00799     11.42171        -0.259884     -0.260836     -0.048980
O      15.43101     13.59799     11.30175        -0.204851     -0.233783     -0.149575
O       3.76969      5.79985      2.87231         0.959051     -0.009432     -0.021948
O       3.89599      5.63822     15.75615        -0.307920      0.630451     -0.551512
O      15.41307      5.71390      2.85411         0.007860      0.338456     -0.200249
O      15.41219      5.65147     15.75170         0.415393     -0.029681     -0.121884
O       3.82922      5.81416      7.04394        -0.180321     -0.026697      0.097223
O      15.45114      5.78394      7.21529        -0.854417     -0.241124     -0.314029
O       3.91330      5.78537     11.55964        -0.988422      0.080418     -0.826217
O       0.03308      5.84875     11.27698        -0.280995     -0.095017      0.359688
O       3.85039      9.66073      2.67365        -0.340003      0.133062      0.246365
O       3.82389      9.49679     15.71879        -0.000071      0.657803      0.031995
O      15.35433      9.68097      2.71016        -0.330815      0.401765      0.122024
O      15.41531      9.64850     15.85770        -0.174755      0.123584     -0.736473
O       3.83620      9.70345      7.12252         0.122939     -0.658643      0.371641
O      15.41720      9.73401      7.06707        -0.309710     -0.635690      0.060215
O       3.85436      9.74818     11.40147        -0.740748     -0.503788     -0.258299
O      15.42462      9.53774     11.27735         0.223888      0.540870     -0.301192
O       7.75318      1.87433      2.98111        -0.304661      0.442454     -0.900880
O       7.70639      1.87906     15.81560        -0.316324     -0.423177      0.128913
O       7.69006     13.58781      2.65150         0.509530     -0.157126     -0.081231
O       7.73024     13.60012     15.75407        -0.600692     -0.529266     -0.230302
O       7.75570      1.98072      7.06014         0.034103      0.191288     -0.238470
O       7.62865     13.42271      6.94025         0.556936      0.520382     -0.356370
O       7.70127      1.97596     11.44955         0.678580      0.167449      0.013180
O       7.73560     13.44623     11.45754         0.566997     -0.274308     -0.273864
O       7.68484      5.80329      2.79958         0.156412     -0.067355     -0.174219
O       7.73938      5.84868     15.65122        -0.198891     -0.207289      0.231702
O       7.72588      5.80782      7.04579         0.109944     -0.497932      0.094531
O       7.72574      5.82613     11.28454         0.522665     -0.262898      0.419606
O       7.64634      9.67846      2.95269         0.460271     -0.060749     -0.719655
O       7.71110      9.45418     15.87639         0.211282      0.595100     -0.445547
O       7.70134      9.63853      7.02709         0.168703     -0.492885     -0.311626
O       7.69339      9.65961     11.41294         0.703211      0.005070     -0.020011
O      11.56350      1.91005      2.74765         0.657041      0.112579      0.040608
O      11.46702      1.78918     15.75753         0.771775      0.362535      0.217895
O      11.48270     13.34928      2.65736         0.633581      0.343801     -0.158865
O      11.55365     13.44596     15.67172        -0.135439      0.630153     -0.090536
O      11.56359      1.85210      7.09976        -0.432487      0.348841     -0.231665
O      11.48065     13.41609      7.01449        -0.010865     -0.091094     -0.229149
O      11.67579      1.93700     11.51383        -1.009511     -0.224919     -0.240789
O      11.52968     13.56554     11.30160         0.195792      0.381735     -0.109629
O      11.49537      5.84210      2.63779         0.472459      0.002805      0.355931
O      11.60498      5.76730     15.65592        -0.568385     -0.455521      0.335561
O      11.53014      5.74629      7.14086         0.632639      0.403432      0.054888
O      11.57161      5.76857     11.61672         0.139087     -0.315100     -0.326067
O      11.44694      9.57268      2.57485         1.079818      0.173604      0.552149
O      11.56475      9.61040     15.65145         0.407554     -0.118307     -0.196258
O      11.52300      9.56038      7.10672         0.147928      0.267612     -0.207528
O      11.64383      9.70017     11.50497        -0.639565     -0.183077     -0.279764
O       1.90644      3.87061      2.75158        -0.444222     -1.176927      0.180237
O       2.00790      3.82903     15.70920        -0.473650      0.063443     -0.349077
O       2.04237     15.42214      2.66685        -1.116258      0.108415      0.071458
O       1.90434      0.01173     15.69468         0.328809     -0.375603      0.473295
O      13.49643      3.81091      2.87327        -0.179726      0.128621     -0.378022
O      13.45065      3.73554     15.79822        -0.397776      0.519519      0.130886
O      13.41913     15.41352      2.72803        -0.017096     -0.689664     -0.378075
O      13.53125     15.45785     15.79406        -0.386379     -0.419493      0.264430
O       1.85925      3.83259      7.04670         0.021065      0.123015     -0.100777
O       1.92781     15.40231      7.05347        -0.276673      0.132683     -0.272821
O      13.35931      3.81164      7.09802         0.617572      0.404442     -0.022743
O      13.38049     15.35658      7.04610         0.550200      0.664818     -0.576776
O       1.98135      3.88930     11.36044        -0.256049     -0.563156      0.003904
O       1.87885     15.42853     11.33312         0.239106      0.070987     -0.190075
O      13.55257      3.86958     11.43333        -0.223453     -0.239640      0.446995
O      13.53514     15.42480     11.40969        -0.041387      0.257498     -0.167705
O       1.92916      7.74541      2.69523        -0.563061     -0.083122      0.347923
O       1.81505      7.66964     15.86231         0.321293     -0.042795     -0.703286
O      13.54121      7.73780      2.79141        -0.692761     -0.031430     -0.617262
O      13.56114      7.64778     15.58439        -0.282216      0.729725      0.215951
O       1.86118      7.73796      7.17507         0.159079     -0.460609     -0.178898
O      13.50937      7.69185      7.27340         0.085318     -1.274673     -0.174700
O       1.86856      7.70903     11.20519         0.735164      0.195401      0.408043
O      13.30073      7.64506     11.43537         0.811357      0.897045     -0.199915
O       2.02412     11.56306      2.73664        -0.965537      0.577090      0.045814
O       1.95909     11.52583     15.79639        -0.044739      0.748322     -0.152446
O      13.39631     11.54433      2.66310        -0.011804      0.490609      0.251802
O      13.44417     11.59441     15.68750         0.629128     -0.396959     -0.451616
O       1.94346     11.58277      7.15870        -0.546888      0.361886     -0.221891
O      13.47520     11.48946      6.98008        -0.506658      0.525058      0.098107
O       1.76597     11.52121     11.38253         0.729571      0.186277     -0.052135
O      13.51625     11.68055     11.27889        -0.097448     -0.289604     -0.046862
O       5.76432      3.90997      2.80506         0.492739     -0.900247      0.142143
O       6.00154      3.77547     15.72667        -0.641484      0.411754     -0.316092
O       5.73343      0.01443      2.70111         0.351391     -0.211140      0.397070
O       5.70404     15.41124     15.68379         0.687201      0.651139      0.157150
O       5.67965      3.75853      7.08916         0.683696      1.279386      0.052776
O       5.79845     15.45381      6.98802        -0.116836     -0.499424      0.158381
O       5.72824      3.82822     11.40644         0.057239      0.291335      0.088966
O       5.83989     15.35964     11.51208        -0.475746     -0.116046     -0.742096
O       5.73119      7.78205      2.76673         0.421323     -1.123822      0.521765
O       5.73196      7.61406     15.80898         0.132898      0.108102     -0.121210
O       5.84573      7.74697      7.14499        -0.548894     -0.377197     -0.327593
O       5.80208      7.75789     11.49133        -0.365113     -0.138435     -0.572241
O       5.84434     11.52459      2.72100        -0.231630      1.559802     -0.066180
O       5.87010     11.48869     15.68153        -0.458677      0.697761      0.226830
O       5.76975     11.54540      6.97513         0.050971      0.928678      0.020246
O       5.76266     11.61807     11.55691         0.102299     -1.046769     -0.027179
O       9.59049      3.87087      2.86432         0.190312     -0.184019     -0.213250
O       9.54117      3.87451     15.69611         0.529718     -0.661799      0.272963
O       9.75481     15.39115      2.75532        -0.387893     -0.140114     -0.488103
O       9.57017     15.43228     15.96858         0.521172     -0.132852     -0.213447
O       9.69132      3.90369      6.84621        -0.162365     -0.118080      0.440545
O       9.55388     15.43415      6.91243         0.222151     -0.325371      0.087954
O       9.69669      3.83639     11.50540         0.067541      0.004430     -0.414052
O       9.38397      0.02377     11.20156         1.468539     -0.479886      0.560345
O       9.46463      7.72151      2.62351         0.339649     -0.328149      0.344444
O       9.71381      7.65331     15.73904        -0.087361      0.033624     -0.220016
O       9.60892      7.68339      7.10382         0.369537     -0.311809     -0.104251
O       9.73834      7.76347     11.33314         0.005330     -0.972017      0.688470
O       9.52160     11.50827      2.69266         0.275316      0.978825      0.114387
O       9.57330     11.50039     15.76691        -0.117277      0.692308     -0.489902
O       9.53801     11.48853      7.01979         0.618223      0.764786     -0.280264
O       9.69854     11.56629     11.35019         0.065309      0.409510     -0.263005
