  # total energy = -7882.41053536 
CRSYTAL
PRIMVEC
    15.464    0.0000000000000000    0.0000000000000000
     0.0000000000000000   15.464    0.0000000000000000
     0.0000000000000000    0.0000000000000000   17.350608
PRESSURE
-1.59632 -1.72994 -3.76342 0.161889 0.004064 -0.020928
PRIMCOORD
320 1
Pb       3.83978      3.76997      4.36159         0.410641      0.178643     -0.260309
Pb       3.85937      3.94086     17.23122         0.611603     -0.692353      0.225954
Pb       3.76651     15.37218      4.31341         0.659731     -0.106468     -0.079979
Pb       3.83221     15.39118     17.20236         0.579700      0.810094      0.635221
Pb       0.10638      3.86411      4.36772        -0.615959     -0.444666     -0.542443
Pb      15.35969      3.73901      0.04929        -0.460031     -0.067854     -0.032935
Pb       0.08019     15.45090      4.27851        -0.808986      0.145071     -0.123865
Pb      15.39081     15.35272     17.23759        -0.118796      0.015588      0.513622
Pb       3.75040      3.87444      8.54432         0.656583     -0.033038      0.277645
Pb       3.81476     15.38323      8.81375         0.300129      0.083316     -0.665521
Pb      15.38368      3.81965      8.50173         0.407097     -0.242803      0.171071
Pb       0.06805      0.06971      8.66277        -0.437834     -0.400116     -0.525270
Pb       3.70155      3.88889     12.95592         0.257006      0.085164      0.024492
Pb       3.77168     15.35928     12.97310         0.525332      0.449552     -0.497685
Pb      15.30043      3.83046     12.96018         0.414193      0.235289     -0.226964
Pb      15.41198      0.00887     12.97171        -0.420110      0.214447     -0.307468
Pb       3.84092      7.64612      4.21539         0.170846      0.268467      0.585659
Pb       3.72782      7.61378      0.20224         0.322313      0.364939     -1.228796
Pb      15.45629      7.74140      4.25584         0.139668     -0.126816     -0.709968
Pb      15.45699      7.74046      0.17888         0.133420     -0.115847     -0.983633
Pb       3.83133      7.69539      8.66056        -0.045845      0.088069     -0.476927
Pb       0.07680      7.81014      8.53934         0.193697     -0.329997      0.544433
Pb       3.88771      7.70091     13.03036        -0.251342      0.074222      0.028923
Pb      15.42229      7.76613     13.01460         0.225763     -0.255204     -0.296398
Pb       3.92693     11.56467      4.39699         0.375827      0.190438     -0.746381
Pb       3.86762     11.65818     17.31658         0.298656     -0.598157     -0.487055
Pb       0.06133     11.56447      4.33992        -0.300717      0.491749     -0.454982
Pb       0.07788     11.60845      0.00123        -0.437450      0.111953     -0.464257
Pb       3.96514     11.56865      8.70306        -0.125299     -0.086781     -0.274114
Pb      15.43520     11.60743      8.59102         0.663788     -0.034151      0.024915
Pb       3.79191     11.64131     13.02101        -0.163672     -0.686917     -0.680288
Pb      15.38929     11.51261     12.88654         0.627607      0.295729      0.410346
Pb       7.60685      3.81548      4.34293         0.423669     -0.505050     -0.276470
Pb       7.67759      3.91964     17.25659         0.010782     -0.163141      0.084365
Pb       7.81807     15.33644      4.33880        -0.185290      0.549551      0.160323
Pb       7.62357     15.35798     17.23202         0.264672      0.268501      0.012582
Pb       7.57851      3.86337      8.62930         0.316983     -0.369173     -0.318383
Pb       7.69355      0.04605      8.69400         0.128628     -0.109958     -0.090668
Pb       7.61841      3.87772     12.92724         0.189794      0.235019      0.204108
Pb       7.73359      0.09775     12.96703        -0.286741     -0.065903     -0.310581
Pb       7.74916      7.70232      4.24258        -0.351001      0.594617      0.079213
Pb       7.78547      7.79044      0.04629        -0.213875     -0.364130     -0.383088
Pb       7.60701      7.65001      8.61779         0.311743      0.001587     -0.298963
Pb       7.71469      7.79788     13.04998        -0.088495     -0.313917     -0.565798
Pb       7.80766     11.56998      4.38626        -0.220532     -0.086266     -0.707582
Pb       7.75261     11.56953     17.23064        -0.185117      0.066745      0.047207
Pb       7.78448     11.54111      8.66796        -0.245807      0.156341     -0.078864
Pb       7.64331     11.56731     12.90816        -0.015013      0.043246      0.017538
Pb      11.40765      3.90223      4.42249         0.314631     -0.785279     -0.717256
Pb      11.52642      3.82940      0.03636         0.114601     -0.519331      0.047022
Pb      11.65245      0.00459      4.26837        -0.229650      0.016369      0.314335
Pb      11.53534     15.38600     17.31783        -0.253284      0.480790     -0.153446
Pb      11.78821      3.88141      8.67211        -0.815365     -0.166244     -0.325749
Pb      11.64166     15.44631      8.72488        -0.370196     -0.078064     -0.746733
Pb      11.55606      3.81426     12.97264        -0.135949      0.404885     -0.005960
Pb      11.54002     15.46349     12.95374         0.243214      0.293277      0.108603
Pb      11.66361      7.68919      4.26624         0.071762      0.317065     -0.403744
Pb      11.66766      7.68783     17.31938        -0.399341      0.474667     -0.149063
Pb      11.52758      7.76639      8.63474        -0.183999     -0.179029      0.267823
Pb      11.58065      7.66709     13.09293        -0.420972     -0.340448     -0.828367
Pb      11.65265     11.46539      4.39545        -0.011960      0.327962     -0.931962
Pb      11.55307     11.55863     17.25250        -0.234636     -0.171037     -0.172087
Pb      11.67164     11.59099      8.56646        -0.743304      0.118895      0.689894
Pb      11.60624     11.54553     12.85790        -0.099096     -0.326576      0.283254
Ti       1.98506      1.94212      2.21451        -0.765947     -0.438660      0.625205
Ti       1.90202      1.97021     15.29576         0.882157     -0.212283      0.654587
Ti       1.94325     13.56805      2.19413        -0.228087     -0.656037      0.520712
Ti       1.88392     13.60357     15.29046        -0.499879     -1.094713      1.504321
Ti      13.45941      1.97966      2.38486        -0.264836     -0.487312     -0.982707
Ti      13.52605      1.88838     15.34520        -0.709300      0.620201      0.075300
Ti      13.51417     13.43554      2.23614         0.346280      0.882558      0.611564
Ti      13.40798     13.54876     15.17812         0.979125     -0.729176      0.394998
Ti       1.99575      1.84611      6.55326        -0.605381     -0.211610     -0.493001
Ti       1.97384     13.51649      6.64659        -0.436141     -0.066366      1.569477
Ti      13.52710      1.89850      6.56319        -0.232033     -0.844611      0.094637
Ti      13.55390     13.50614      6.71250         0.039941      1.021279     -1.063366
Ti       1.89258      1.89520     10.91177         0.532799      0.864794     -0.113783
Ti       1.83591     13.56242     10.90284         1.168464     -0.877359     -0.089154
Ti      13.52254      1.96807     10.88123         0.032209     -0.360270      0.354261
Ti      13.56163     13.57399     10.98935        -0.650886      0.036255     -0.329643
Ti       1.96090      5.71752      2.31336        -1.142077      0.879497      0.685460
Ti       1.83091      5.71757     15.38878         1.055027      1.168258     -0.445848
Ti      13.49225      5.68502      2.22957         0.704256      0.269369     -0.012514
Ti      13.51748      5.81330     15.33210         0.143185     -0.561774     -0.379095
Ti       1.93821      5.76007      6.57126         0.501695      0.485654     -0.859671
Ti      13.57928      5.83282      6.59756        -0.420286     -0.784945     -0.462067
Ti       1.84765      5.81826     10.99600         0.922245     -0.392847      0.420461
Ti      13.50997      5.87279     10.96104        -0.749635     -0.626897     -0.841595
Ti       1.99403      9.69831      2.29922        -0.910245      0.052584     -0.385178
Ti       1.81896      9.67233     15.33693         1.175523     -0.273219      0.176687
Ti      13.60111      9.62472      2.17301        -1.074947      1.036425     -0.215084
Ti      13.46144      9.69377     15.26701         0.533161      0.421688      2.702858
Ti       1.94139      9.65566      6.54513         0.448552      0.003196      0.765746
Ti      13.53192      9.65759      6.65503        -0.208534     -0.515109      0.501166
Ti       1.87944      9.61270     10.94260         1.333725      0.542019     -1.236662
Ti      13.57365      9.63896     10.85901        -1.049807      0.083726     -0.325039
Ti       5.74764      1.78121      2.27520         1.588876      0.492448     -1.071710
Ti       5.77834      1.93723     15.22968         0.200986      0.373528      1.072900
Ti       5.85165     13.49400      2.30359         0.068485      0.058722     -0.888530
Ti       5.75058     13.55052     15.21503         0.746550     -1.677342      0.051760
Ti       5.76145      1.81030      6.60552         0.950779      0.391625      1.160961
Ti       5.79679     13.51934      6.61693         0.276107      0.200404      1.060907
Ti       5.72695      1.97840     11.00311         0.218617     -0.307101      0.269390
Ti       5.75137     13.52042     10.98380         0.274676      0.443787     -1.170372
Ti       5.73798      5.71219      2.33938         0.846719      0.016343     -0.764505
Ti       5.75057      5.83957     15.35479         0.506899     -0.042713     -0.995507
Ti       5.77219      5.71374      6.53501        -0.321956      0.720260     -0.716069
Ti       5.68415      5.79627     10.97647        -0.241770     -0.256674     -0.345412
Ti       5.78957      9.60579      2.25555         0.735846      0.883973      0.044422
Ti       5.68304      9.56536     15.35405        -0.016316      1.239448     -0.206838
Ti       5.82537      9.65287      6.64268        -0.158413     -0.936743     -1.574434
Ti       5.80709      9.61905     11.00017        -0.564204      0.199428     -0.693918
Ti       9.54669      1.85397      2.26229         1.431903      0.795163     -0.563477
Ti       9.67562      1.97714     15.34331        -0.585742     -0.296886      0.247521
Ti       9.73110     13.49069      2.35855        -0.679975     -0.579226     -0.608850
Ti       9.63692     13.54369     15.12340        -1.038041     -0.103595      0.643699
Ti       9.65925      1.96525      6.73911        -0.183453     -0.309149      0.028501
Ti       9.60910     13.54643      6.67824         0.368921      0.460884     -0.863895
Ti       9.65833      1.93818     10.98936        -0.594688      0.230238     -0.793771
Ti       9.66422     13.48698     11.08213        -0.570621      0.142965     -0.612916
Ti       9.61624      5.74027      2.40406        -0.011576     -0.601076     -2.074370
Ti       9.71583      5.85597     15.38484        -1.224049     -0.817243     -1.167292
Ti       9.75759      5.79836      6.65285        -1.027282     -1.042325      0.699381
Ti       9.60804      5.78003     10.97993         0.014092      1.056986     -0.572093
Ti       9.72563      9.61204      2.31006        -0.266815      1.441072     -0.149308
Ti       9.62575      9.65776     15.24262        -0.031574      0.193824      0.933907
Ti       9.62922      9.65871      6.62440        -0.198020     -0.221341      0.029045
Ti       9.69888      9.61619     10.99926        -0.634044     -0.345206     -0.835779
O       2.01863      1.83577      0.45239        -0.371446      0.358896      1.441875
O       2.02787      2.07475     13.54692        -0.715048     -0.617129     -0.147715
O       1.88867     13.50732      0.38977         0.079557      0.330630      1.541307
O       1.85811     13.46658     13.54091         0.242521      0.271913     -0.074287
O      13.48477      2.11454      0.51472         0.222880     -0.484852      0.851571
O      13.54764      1.81238     13.55833         0.213600     -0.001356      0.534903
O      13.56129     13.56582      0.46305        -0.401369     -0.336452      0.662500
O      13.63227     13.73745     13.41473        -0.059793     -0.326818      0.164400
O       1.90935      1.73357      4.70557         0.460195      0.873346      1.767792
O       1.84885     13.48606      4.92906         0.275796      0.199852     -1.200723
O      13.46161      1.80577      4.77236         0.031592      0.668439      0.971423
O      13.48861     13.54937      4.93250         0.108401     -0.243729      0.713145
O       1.86998      1.71094      9.12556         0.292663      0.910265      0.702066
O       1.97682     13.71862      9.12819        -0.071640     -0.655264      0.713513
O      13.56609      1.93466      9.10364         0.018845      0.283371      0.677556
O      13.47185     13.53738      9.21848         0.004728     -0.227393      0.343716
O       2.09204      5.73430      0.57407        -0.534968      0.079301     -0.994195
O       1.97577      5.73390     13.62401        -0.449304      0.113802      0.101726
O      13.64689      5.51158      0.41680        -0.497452      0.965244      0.596898
O      13.46069      5.77399     13.50965         0.207639      0.421138      0.960648
O       1.95658      5.75251      4.75284        -0.319963      0.042513      0.633573
O      13.49250      5.75942      4.79795         0.295699      0.359444      1.018683
O       2.02086      5.95251      9.26938        -0.207341     -0.611705     -1.064311
O      13.38631      5.73402      9.12911         0.737433      0.143236      1.367670
O       1.96446      9.71945      0.47739        -0.406226     -0.404820      1.386352
O       1.95924      9.70127     13.53640        -0.634114     -0.189579      0.663216
O      13.59021      9.77719      0.36561        -0.011781     -0.539458      0.975261
O      13.52103      9.65020     13.57181        -0.013722     -0.344080     -2.280426
O       1.69796      9.64978      4.75851         0.611467      0.124298      0.901213
O      13.40271      9.54429      4.90026         0.410348      0.364508      0.266449
O       1.95580      9.59337      9.10318        -0.235060     -0.025739      1.085999
O      13.55842      9.60010      9.08497        -0.076953      0.200414      0.456352
O       5.82161      1.75817      0.45959        -0.115347     -0.038704      1.559042
O       5.96625      1.96573     13.45503        -0.624312     -0.082770      0.566521
O       5.90110     13.62985      0.44987        -0.225676     -0.403226      1.738865
O       5.66527     13.55231     13.40102        -0.074652     -0.264167      0.580541
O       5.93156      1.86530      4.88727        -0.568294      0.419604     -0.800868
O       5.82590     13.45674      4.86409        -0.195774     -0.006991      0.126783
O       5.83993      1.96279      9.26243        -0.197874      0.166727     -0.714327
O       5.74782     13.46832      9.11346        -0.334780      0.179278      1.621185
O       5.76458      5.78407      0.53194        -0.025996     -0.088614      0.878920
O       5.69969      5.83781     13.52601         0.309049      0.216503      1.029619
O       5.67601      5.61251      4.68921         0.234377      0.491618      1.294485
O       5.43984      5.76680      9.15078         0.870041      0.243991      1.075205
O       5.76412      9.67915      0.48072        -0.059086     -0.204532      0.843115
O       5.77105      9.62646     13.49921        -0.092626     -0.055736      0.871839
O       5.97545      9.66917      4.81528        -0.514155      0.304327      0.951585
O       5.75770      9.55860      9.15455        -0.039220      0.228088      1.166070
O       9.79606      1.85247      0.46644        -0.746897     -0.050775      0.402861
O       9.67585      2.08294     13.57265         0.020098     -0.388349     -0.121691
O       9.59557     13.43085      0.55762         0.476219      0.293228      0.953040
O       9.53949     13.46574     13.36369         0.231315      0.091104      0.121449
O       9.64896      1.96837      4.95255         0.139044      0.060505      0.828625
O       9.53949     13.62872      4.84596         0.611989     -0.576526      1.118483
O       9.47630      1.82000      9.21720         0.855400      0.332030      0.810690
O       9.68706     13.56533      9.29734        -0.038417     -0.451659      0.923688
O       9.50605      5.81279      0.56601         0.682499     -0.010494      1.146443
O       9.79026      5.81212     13.54188        -0.217854      0.473026      1.399699
O       9.78216      5.65692      4.87301        -0.289366      0.492541     -0.235064
O       9.62714      5.97710      9.18564         0.173899     -0.571654      0.812506
O       9.66248      9.80241      0.54048         0.330409     -0.593223      0.457971
O       9.72159      9.59131     13.46445        -0.314311      0.000594      0.539538
O       9.64419      9.65218      4.82250         0.098889     -0.042330      1.067550
O       9.70857      9.66650      9.20413        -0.577280     -0.192022     -0.090747
O       3.94435      2.02486      2.69214        -1.638973     -0.167346     -0.117068
O       3.88542      1.90541     15.73688         0.003394     -0.199128     -0.625780
O       3.88001     13.53344      2.78555        -0.984576     -0.250298     -0.591455
O       3.85464     13.52997     15.83569        -0.648957     -0.520281     -1.365068
O      15.43482      2.00683      2.77324         0.698862     -0.617419     -0.678767
O       0.00602      1.81675     15.78444        -0.477438      0.419950     -0.649559
O      15.44354     13.61306      2.71422         0.226592     -0.046725     -0.575774
O      15.41603     13.51395     15.75607         0.639286      0.321661     -0.715247
O       3.90072      1.90014      6.95378        -1.154359     -0.019444     -0.086206
O       3.88251     13.63073      6.96680         0.052677     -0.505419      0.075726
O      15.45945      1.90406      6.89639         0.353200      0.320823      0.148161
O       0.05848     13.46824      7.09941        -0.849294      0.149774     -0.045699
O       3.85533      2.03181     11.30253        -0.950475     -0.426725      0.053910
O       3.77603     13.50341     11.33740         0.273846     -0.121694      0.147165
O       0.00726      1.90291     11.30072        -0.108846      0.077037      0.273243
O      15.45057     13.58140     11.23942         0.104122      0.185160      0.403747
O       3.83480      5.75505      2.65453         0.324154     -0.218860      0.256433
O       3.91682      5.83573     15.73608        -1.003789     -0.212009      0.397266
O      15.45628      5.97381      2.51667         0.005164     -0.457648      0.441949
O      15.44422      5.74685     15.63155        -0.334286     -0.121116      0.288180
O       3.81596      5.84586      6.88567         0.027350     -0.529329      0.329597
O       0.05969      5.62453      7.00100        -0.890661      0.779006     -0.288238
O       3.80651      5.74942     11.48178        -0.219305      0.690653     -0.295643
O      15.44254      5.78261     11.47115        -0.949958      0.121858     -0.202573
O       3.79287      9.67043      2.74022         0.831344      0.509298     -0.004536
O       3.83264      9.67487     15.73566        -0.017944     -0.251303     -0.275757
O      15.42710      9.62217      2.71644         0.262078     -0.057713     -0.398590
O      15.41860      9.76749     15.60302         0.137042     -0.585033      0.234709
O       3.82312      9.59565      6.80785        -0.437376      0.600468      0.074526
O      15.45374      9.63482      7.09158        -0.196568      0.241187     -0.726061
O       3.73284      9.71428     11.36907         1.030039     -0.058956     -0.055144
O      15.41367      9.60325     11.23554        -0.220223      0.029564      0.683397
O       7.75285      1.85141      2.78251        -0.945919     -0.024962     -0.518871
O       7.66934      1.91308     15.74691         0.166293     -0.068627     -0.452644
O       7.72676     13.56252      2.80282         0.089797     -0.206328     -0.637295
O       7.70896     13.50627     15.55564        -0.226298     -0.224728     -0.026139
O       7.68992      1.92760      7.14037         0.322526      0.130619     -0.203394
O       7.74033     13.59950      7.03944        -0.603726     -0.604836      0.092656
O       7.76219      2.01987     11.35101        -0.092292     -0.240966      0.414063
O       7.62765     13.63433     11.35062         0.756667     -0.491930      0.037912
O       7.75288      5.89218      2.71085        -0.574315      0.110664      0.286262
O       7.70972      5.77065     15.74071         0.376971      0.350601     -0.221244
O       7.62147      5.76289      6.94069         0.469363      0.132137      0.111194
O       7.65271      5.83880     11.25724        -0.080292     -0.077837      0.132183
O       7.71461      9.68180      2.60130        -0.224054     -0.668074      0.159604
O       7.76006      9.58931     15.74072        -0.132044      0.261769     -0.490954
O       7.72155      9.55753      7.10292         0.458813      0.217003     -0.067746
O       7.72236      9.58617     11.38188        -1.358714      0.491870     -0.013400
O      11.53303      2.09562      2.62398         0.390193     -0.187525      0.484392
O      11.56821      1.91712     15.76739         0.395225     -0.339124     -0.350588
O      11.64260     13.48376      2.69417        -0.787017     -0.045595     -0.105371
O      11.50557     13.56555     15.43944         0.635169     -0.219809      0.315929
O      11.64095      1.97025      7.15036        -0.196487     -0.564318     -0.459266
O      11.58673     13.43277      7.10629        -0.007248      0.145552     -0.258155
O      11.61606      1.92330     11.36287         0.100941      0.078024     -0.263120
O      11.59003     13.42682     11.51277         0.139707      0.754378     -0.686611
O      11.61894      5.64651      2.63365        -0.428261      0.687191      0.072026
O      11.59787      5.87453     15.76895         0.251884     -0.172783     -0.029298
O      11.59691      5.69822      7.02354         0.655139      0.225684     -0.229847
O      11.59560      5.89790     11.42807         0.124261     -0.282346     -0.386420
O      11.64422      9.68847      2.67920        -0.029389      0.191193      0.053459
O      11.54773      9.61191     15.75652         0.330709      0.100277     -0.267983
O      11.54918      9.73475      7.10089         0.170106     -0.567126     -0.728796
O      11.54043      9.66087     11.18578         1.931476      0.172619      0.730991
O       1.82683      3.86060      2.71404         0.543963     -0.606528     -0.265696
O       1.98867      3.80328     15.76689        -0.356658      0.677549     -0.050403
O       1.96909     15.44141      2.75695         0.028543      0.228369     -1.032984
O       2.00797      0.03553     15.68263        -0.602355     -0.996140     -0.690278
O      13.58790      3.91260      2.66764         0.404100     -0.217895      0.431687
O      13.44642      3.81899     15.60860         0.510342     -0.024289     -0.074919
O      13.32989      0.06933      2.73321         0.978834     -0.523758     -0.911440
O      13.46929     15.36100     15.77918         0.076236      1.213679     -0.218737
O       1.98919      3.80212      6.90551        -0.178086      0.020192      0.031683
O       1.91780      0.02569      7.10017         0.121869     -0.160069     -0.745973
O      13.56808      3.80943      7.04036        -0.188080      0.510140     -0.320632
O      13.60512     15.41170      7.08753        -0.617671      0.420362     -0.185066
O       1.90001      3.86362     11.28900        -0.255703     -0.363484     -0.011248
O       2.04397     15.44878     11.31259        -0.592081      0.255648      0.435687
O      13.50593      3.84328     11.36460         0.160186      0.326951     -0.222984
O      13.60975      0.05292     11.27621        -0.600722     -0.464012      0.197185
O       1.96546      7.74178      2.64483        -0.014396      0.112490     -0.110055
O       1.94649      7.65452     15.85313        -0.664907      0.494321     -0.064209
O      13.46410      7.80017      2.53212        -0.045604     -1.271264      0.049986
O      13.57749      7.74828     15.70539        -0.126626     -0.581216      0.138379
O       1.90372      7.68196      7.00143        -0.458731      0.328846     -0.485375
O      13.52787      7.66087      7.01541         0.046474      0.451942     -0.282642
O       1.82465      7.71650     11.28344         0.080071      0.262036      0.847374
O      13.49154      7.74714     11.26414         0.354152      0.108770      0.333222
O       1.76360     11.64174      2.75059         0.794782      0.007188     -0.611346
O       1.86036     11.54896     15.87979         0.719118      0.816825     -1.090032
O      13.51035     11.58516      2.67972         0.341801     -0.090630     -0.015211
O      13.45391     11.63883     15.53073        -0.253980      0.236614      0.032594
O       1.91998     11.62253      7.08892         0.283022     -0.933976     -0.450737
O      13.53012     11.55376      7.06279         0.272384     -0.248352     -0.226941
O       1.77585     11.56005     11.32749         0.129623      0.774503     -0.174277
O      13.60873     11.61411     11.39293        -0.497955     -0.512956     -0.470433
O       5.92583      3.86435      2.69024        -0.495995     -0.563724     -0.288093
O       5.73138      3.84753     15.72990         0.354892     -0.088497     -0.406908
O       5.75240     15.43640      2.78426        -0.074057     -0.154554     -0.343825
O       5.74998     15.33333     15.59958         0.103235      1.828487     -0.137108
O       5.73239      3.84932      7.03068        -0.186092      0.202792     -0.156539
O       5.81775     15.45232      7.04477        -0.095032     -0.517288     -0.134299
O       5.71296      3.91428     11.39254         0.542035      0.265785     -0.126953
O       5.72015      0.06751     11.34260        -0.144940     -0.717658      0.141877
O       5.67975      7.73144      2.67486         0.295167     -0.094818      0.000678
O       5.83799      7.73829     15.79845        -0.191846     -0.221295     -0.276690
O       5.71596      7.76730      6.84573         0.336165     -1.271762      0.560770
O       5.64814      7.76962     11.44861         0.343573     -0.484491     -0.530210
O       5.75259     11.65017      2.71783        -0.053567     -0.838447     -0.189008
O       5.72198     11.55258     15.72742         0.295800      0.403376     -0.367452
O       5.76055     11.53649      7.05578         0.096292      0.727595     -0.005101
O       5.76589     11.60242     11.22079         0.077032     -0.391532      0.518880
O       9.54698      3.81490      2.66699         0.029231      0.869943      0.295054
O       9.62123      3.89073     15.71254         0.375298      0.143753      0.185102
O       9.71201      0.01179      2.73331         0.098576     -0.791906     -0.306300
O       9.60331     15.43093     15.52651         0.218004      0.015247      0.112116
O       9.67940      3.82015      7.14711        -0.252854      0.652162     -0.134997
O       9.68090     15.38087      7.14470         0.209948      0.905016     -0.134347
O       9.68903      3.92315     11.41734         0.079255     -0.338236     -0.459561
O       9.73542      0.03636     11.45080        -0.410263     -0.423801     -0.140448
O       9.79244      7.77328      2.76617        -0.499672     -1.142939     -0.129506
O       9.69345      7.75519     15.84506        -0.080748     -0.347244     -0.463722
O       9.64807      7.63859      6.99139         0.175323      1.007362     -0.154396
O       9.53428      7.77378     11.38961         0.654416     -1.148954      0.344043
O       9.64909     11.55131      2.79268         0.255458      0.680642      0.059313
O       9.63354     11.56075     15.72627         0.305231      0.296535     -0.747645
O       9.48231     11.56487      7.01468         0.613886     -0.167829     -0.198459
O       9.60877     11.51693     11.47121        -0.266373      1.171963     -0.369929
