  # total energy = -7844.71741682 
CRSYTAL
PRIMVEC
    15.6080000000000005    0.0000000000000000    0.0000000000000000
     0.0000000000000000   15.6080000000000005    0.0000000000000000
     0.0000000000000000    0.0000000000000000   16.6239999999999988
PRESSURE
1.76919 2.66486 -0.359915 0.369135 0.320689 0.307655
PRIMCOORD
320 1
Pb       3.45592      3.54848      4.20597         0.739913     -0.119270      0.559610
Pb       3.71127      3.86756      0.00358         0.407675     -0.753617      0.178443
Pb       3.62348     15.42588      3.93195         0.577020      0.479695     -0.027412
Pb       3.99645      0.02412     16.54686        -0.988025      0.324687      0.782565
Pb      15.29586      3.87278      4.09140         0.856414      1.226562     -0.204841
Pb       0.08727      3.95522     16.31731        -0.691207      0.137089      1.306381
Pb       0.11979     15.52284      4.03767         0.347082     -0.341807     -0.498946
Pb      15.35600     15.55896      0.12553         1.354818      0.292642      0.695961
Pb       3.90593      4.10308      8.27453        -0.552222     -0.374037     -0.977466
Pb       4.02815     15.57175      8.06571         0.122965      0.212204      0.870639
Pb       0.24844      3.72386      8.66067         0.346696      0.425575     -0.097811
Pb       0.33351      0.01246      8.72868        -1.119221      0.502083      0.654137
Pb       3.94525      3.92070     12.71788        -0.200802     -0.239937     -0.648674
Pb       3.84415     15.42657     12.74772         0.189763     -0.076155     -0.683847
Pb      15.53193      4.14302     12.40494         0.006061     -0.357103     -1.358520
Pb      15.45849     15.55826     13.01642         0.854156      0.504645     -1.593341
Pb       3.90336      7.31373      4.17488        -0.128848      1.794747      0.579531
Pb       3.89648      7.57941     16.56141        -0.001712      0.190088      0.167797
Pb      15.50359      7.52963      4.56421        -0.047446      0.874245     -1.189534
Pb      15.38645      7.74503      0.03068         0.785993      1.002074      0.319728
Pb       3.88385      7.64779      8.06993        -0.694490     -0.266535     -0.412222
Pb      15.52635      7.88722      8.34820         0.333730     -0.001914     -0.496576
Pb       4.06501      7.83059     12.14688        -0.379803     -0.405554     -0.303350
Pb      15.30678      7.99378     12.51684         0.811387     -0.722941     -0.632007
Pb       4.12356     11.57948      3.97434        -0.755581     -0.674139      0.949050
Pb       4.04817     11.43468     16.42133        -0.724152     -0.231253      0.291508
Pb      15.48910     11.89080      4.01947         0.440445     -0.693108     -0.004849
Pb       0.05247     11.56931      0.16278         0.462775     -1.059821     -0.310362
Pb       4.04056     11.49378      8.01412        -1.550417      0.436023      0.229258
Pb       0.13073     11.80290      8.74675         0.319482     -0.553608     -0.877439
Pb       3.94958     11.41037     12.36992        -1.594279      0.788400     -0.515007
Pb       0.04683     11.67375     12.68194         1.348535     -1.444461     -0.222538
Pb       7.53390      3.75785      4.30638        -0.084126      0.582190     -0.257142
Pb       7.71104      4.19180      0.20199         0.687482     -1.650708      0.117109
Pb       7.49387     15.48951      4.39147         0.792374     -0.245877     -1.405294
Pb       7.77758     15.47796      0.15520        -0.128549      1.034579      1.127781
Pb       8.05134      3.77305      8.53226        -1.235505      0.621313     -0.496453
Pb       7.72956     15.60003      8.22629         0.614096     -1.347059      0.767415
Pb       7.66410      3.73867     12.59884        -0.245074      0.677497     -0.713087
Pb       7.84616      0.17315     12.33190        -0.858740     -0.469689     -1.196575
Pb       7.98275      7.84065      4.29587        -0.485110     -0.901111     -0.392909
Pb       7.77190      7.54094     16.62117        -0.187750      1.103308     -0.143506
Pb       7.66599      7.73692      8.18212         0.255603     -1.660120     -0.382744
Pb       7.98478      7.69879     12.19460        -0.549424     -0.902827     -0.362438
Pb       7.99050     11.51117      4.27595        -0.514811      1.399659      0.081023
Pb       7.99452     11.75535      0.05474        -0.833949     -0.966721      0.297226
Pb       8.36242     11.65028      8.40408        -3.415117      1.380990     -0.863742
Pb       7.34512     11.31846     12.32110         1.125910      1.457394     -0.313020
Pb      11.50378      3.75287      4.42047         0.308467      0.678975     -0.308894
Pb      11.52191      3.86956      0.12505        -0.486917     -0.038851      0.315128
Pb      11.64310      0.17003      4.19153        -1.223839     -0.193737     -0.385051
Pb      11.42904     15.60333     16.54608        -0.553025      1.519364      1.066433
Pb      11.64692      3.48023      8.32412         1.802653      1.559022     -0.112851
Pb      11.82301     15.31739      8.61216         0.186032      1.412290     -0.051352
Pb      11.67673      4.12910     12.41864        -0.123289     -0.597632     -1.360782
Pb      11.88441     15.60052     13.03098        -1.413110      1.071446     -1.768474
Pb      11.83021      8.05021      4.04310        -0.484138     -0.140392      1.169483
Pb      11.35504      7.99073      0.00025         0.308738      0.273119     -0.514806
Pb      11.53169      7.76252      8.13578         1.722664     -0.104029      0.267500
Pb      11.62262      7.98224     12.51520         0.629084     -0.170771     -0.814891
Pb      11.65829     12.16596      4.31790        -0.286970     -0.649618     -0.730648
Pb      11.49188     11.92027      0.14199         0.250962     -1.526243     -0.236795
Pb      11.87975     12.15684      8.65267         0.368531     -1.000131     -1.015793
Pb      12.17994     12.06619     12.83693        -2.387145     -2.783308     -1.433296
Ti       1.68599      2.02049      2.14747         2.114636     -1.585015     -0.230805
Ti       2.00002      1.84712     14.58011         1.420056     -0.384941      0.922209
Ti       2.05278     13.49496      1.87959        -1.267170      1.054717     -0.891629
Ti       1.87937     13.65142     14.65153         0.160332     -1.376483      1.424872
Ti      13.33546      2.12816      2.12068         0.724594     -1.192714      1.956879
Ti      13.68592      2.11999     14.62934        -2.174601      0.572332     -0.855278
Ti      13.55245     13.81047      1.95426        -0.126487     -2.112124      2.224009
Ti      13.54145     13.69270     14.89531         1.555976     -1.552716      0.585524
Ti       1.89179      1.85416      6.53106         1.666706      3.255316     -0.348424
Ti       1.80316     13.76087      6.50667         1.037480     -3.100301     -2.586787
Ti      13.86334      1.94572      5.92881        -0.818266      0.863173      5.565445
Ti      13.62588     13.81198      6.20158         0.370737      0.497554      1.034108
Ti       2.06319      1.93274     10.82531        -1.756961      0.410021     -1.675185
Ti       2.18743     13.66089     10.50359        -0.457184      0.244283      0.797430
Ti      13.61448      2.15295     10.49432         1.425660     -1.228263      0.789990
Ti      13.90814     13.77305     10.77644         0.383464      1.859792     -4.131612
Ti       1.92394      5.76925      2.02394        -2.630436      1.718413      0.719362
Ti       1.91094      5.69800     14.51567         0.573910      2.294565     -1.699660
Ti      13.47850      6.07511      2.04188         2.145942     -3.431346      1.386415
Ti      13.56173      5.84045     14.59445         0.532192      1.565500      3.816547
Ti       1.80809      5.74794      6.13610         1.296053     -0.831964      1.138512
Ti      13.59075      5.86092      6.34943         0.214513     -1.131367     -1.410860
Ti       1.97899      5.87643     10.61116        -0.709040     -3.461287     -2.046676
Ti      13.56487      5.91507     10.09823         0.976162      0.749856      1.160523
Ti       1.79839      9.67840      2.15270         0.501786     -1.598114     -0.407601
Ti       1.95084      9.45515     14.57415        -1.658135      2.703608      0.227297
Ti      13.48552      9.83459      2.06979         1.962348      1.800778     -0.803259
Ti      13.56597      9.84301     14.70149         1.245353     -1.109919      0.341322
Ti       1.81924      9.67343      6.26876        -0.684243      0.285841     -0.745237
Ti      13.54493      9.99239      6.31813         1.777074     -1.070152     -0.310383
Ti       1.93513      9.58591     10.39957         0.793468      1.129322     -1.020480
Ti      13.49965      9.87090     10.30837         1.070950     -2.537943      2.132955
Ti       5.69776      2.05820      2.01192         0.443835     -1.716451      1.883990
Ti       6.11423      1.75063     14.78636        -0.792399      3.088395     -0.930765
Ti       5.81979     13.48189      2.13756         1.641775      1.639455      1.347536
Ti       5.81258     13.64529     14.58714        -0.680945     -0.965111     -1.136494
Ti       5.94268      1.91243      6.30836        -2.500152      1.791341     -0.786625
Ti       5.75288     13.58446      6.23605         0.170389     -1.656239      0.527393
Ti       5.80192      2.03012     10.16167        -0.413286     -1.565535      3.203930
Ti       5.94909     13.79573     10.38862         1.060257     -0.191342     -1.745492
Ti       5.81981      5.84105      2.10081         1.546524     -0.181940      1.261625
Ti       5.91864      5.66041     14.43673         0.437521      0.985359     -0.205005
Ti       5.89869      5.75766      6.10372         0.343899      1.067020      0.758351
Ti       5.89223      5.61590     10.38938         0.373512      1.962034     -1.525661
Ti       5.91789      9.63333      2.18215        -0.227780      1.764688      0.102239
Ti       5.76340      9.56499     14.40549         0.274594     -0.559091      1.599127
Ti       5.82199      9.56002      6.14107        -0.758166      0.540419     -0.904535
Ti       5.91715      9.66485      9.99351        -1.435380     -0.066067      3.325387
Ti       9.46171      2.30210      2.44152         0.326816     -4.167016     -1.898927
Ti       9.76990      2.16921     14.35868         0.559348     -0.950740      0.638744
Ti       9.60476     13.91830      2.08683         0.215618      0.401681      3.499418
Ti       9.43024     13.68961     14.38470         2.449966     -1.219486      0.442291
Ti       9.79614      1.93570      6.59574        -0.513655     -1.828766     -2.235440
Ti       9.73538     13.64556      6.44948        -1.277972      0.523880     -1.840921
Ti       9.82573      1.85221     10.47843         0.409169     -0.719357      0.052734
Ti       9.82979     13.51582     10.71296        -2.035741      2.275166     -0.969225
Ti       9.85739      6.06732      2.17772        -1.585320     -1.962425      1.211719
Ti       9.85227      5.84243     14.47762        -1.302113      1.489590     -0.216981
Ti       9.87337      5.73390      6.19007        -1.286869      0.942093     -0.816872
Ti       9.77674      5.83624     10.11811         0.660648     -0.895263      1.592815
Ti       9.63948      9.93790      2.28121         0.808526     -0.069614      0.503715
Ti       9.50295      9.76446     14.44227         1.081639      0.396198      1.789580
Ti       9.74316      9.60579      6.38936         0.462211      1.981295     -1.709515
Ti       9.81632      9.84008     10.35659         0.487668     -0.796357      0.073878
O       2.18728      1.87276      0.31197        -0.875308      0.694008     -1.099066
O       2.01919      1.90647     12.67874         0.060631     -0.504923      1.271442
O       1.71776     13.60114      0.02144         1.036684      0.351827      2.360540
O       2.00383     13.96774     12.91460        -0.579002      0.037810     -2.785237
O      13.33855      2.02626      0.39983         0.296093     -0.232967     -2.936431
O      13.83711      2.28953     12.83116        -0.757190     -1.138171      0.381865
O      13.21592     13.63508      0.09524         0.469629      0.472516     -0.559469
O      13.99903     13.36790     12.50439        -0.744434      1.033650      2.515751
O       1.72713      1.87953      4.28332         1.062403     -0.445868     -0.391116
O       1.83850     13.57408      4.52424        -0.641618      1.177064      0.703823
O      13.74070      1.64985      4.27980        -0.328705      0.125788     -3.278105
O      13.62114     13.73591      4.37072         0.441949      0.246131      0.417886
O       1.93542      2.02521      8.40560        -0.728967     -0.074030      1.173840
O       2.11877     13.92285      8.74848         0.011058     -0.835332     -1.220262
O      13.80881      2.14968      8.75164        -0.628872      0.029569     -0.442728
O      13.54301     13.81296      8.59406        -0.395103     -0.694962      0.526194
O       1.93671      5.70974      0.11085         0.055656     -0.351546     -0.130668
O       2.16994      5.84704     12.66094        -0.064808     -0.854991      1.115856
O      13.67865      5.88595      0.29860         0.957288     -0.252730     -1.183546
O      13.07657      5.81728     13.00708         0.360325      0.791534     -2.769982
O       1.97342      5.95763      4.32755        -0.272556     -0.480532     -0.258619
O      13.62831      6.04004      4.43669        -0.646775     -0.047268     -0.620881
O       2.00589      5.67063      8.77955         0.006368      0.137537     -0.807946
O      13.55031      5.89960      8.31157         0.616253     -0.674969      1.932488
O       1.89648      9.82143      0.21146         0.530606      0.528710     -0.929646
O       2.07741      9.68519     12.72890        -0.144818     -0.458838      0.357436
O      13.70094     10.04333      0.14237        -1.230804     -1.042489      1.079714
O      14.05521      9.80005     12.75167        -1.970020      1.377109      0.889386
O       1.48925      9.58811      4.35084         0.987897      0.816928      1.804846
O      13.60887      9.72730      4.48275         0.115548     -0.006364     -0.085773
O       2.11584      9.70870      8.50313        -0.751069     -0.585424      1.030773
O      13.90207      9.65326      8.63381        -1.160178      0.297179     -1.201121
O       5.79317      2.09071      0.23347        -0.303757     -0.534157     -2.220747
O       5.96993      1.94663     12.91503         0.642254     -0.599503      0.312309
O       5.92345     13.64880      0.37876         0.215199     -0.303815     -2.291414
O       6.22262     14.06048     12.74757        -1.220580     -0.933623      1.601841
O       5.81388      2.07041      4.47286         0.364919      0.053460      0.594274
O       5.72735     13.37273      4.45315         0.317784      1.348437      0.377929
O       5.79546      2.09147      8.50945         0.507233      0.001855     -3.437600
O       6.00088     13.82813      8.56040        -1.504979     -0.610268      0.701796
O       5.77935      5.91333      0.19804        -0.111101     -0.422466      0.430874
O       5.89787      5.32738     12.50646        -0.491648      1.573879      1.597256
O       5.87223      5.75772      4.28698        -0.821922     -0.114610     -1.062030
O       6.06209      5.92565      8.37301        -0.232498     -0.035893      1.603758
O       5.98335      9.80586      0.37113        -0.871482      0.437515     -1.091610
O       5.58700      9.86668     12.59113         1.219404     -1.824978      0.966435
O       5.96280      9.79780      4.35194        -0.372473     -0.047457     -0.189335
O       5.87360      9.51464      8.27656        -0.123093     -0.028413      0.154681
O       9.66627      2.31863      0.44003         0.577344     -0.201062     -0.709161
O       9.92431      2.01597     12.46216        -1.124100     -0.374996      1.479337
O       9.87177     13.55309      0.30714        -0.884594      1.239499     -1.298007
O       9.47417     13.36860     12.62369         0.153660      0.944044     -0.010854
O       9.65358      1.77638      4.29089        -0.367192      0.488462      1.164733
O       9.50839     13.72097      4.53458         1.132882     -0.042395      0.312265
O       9.71408      2.16684      8.49151         1.356724     -1.332830     -1.406649
O       9.68604     13.40974      8.40722         2.403481      0.747850      0.782577
O       9.54064      5.76388      0.37251         0.265027      0.738998     -0.603912
O      10.12582      6.02556     12.66611        -0.501313     -0.252785      1.418216
O      10.01922      6.09283      4.38694        -0.121750     -1.097714      0.151025
O       9.72349      5.88535      8.31798        -0.312259     -0.000967      0.649673
O       9.58077      9.43081      0.55352         0.049764      1.214751     -1.887385
O       9.60240      9.73157     12.72555         0.008537     -0.025902     -1.392427
O       9.77998      9.80270      4.31203         0.227927     -0.548339      1.952536
O       9.79794      9.94946      8.50446         0.840565     -2.233698      0.634044
O       3.87558      1.99688      2.36968        -0.539696      0.129568      0.293340
O       3.92266      1.89757     14.76587        -0.226068      0.336535      0.087167
O       3.92934     13.36259      2.25551        -2.176221      0.628100     -0.122700
O       3.84776     13.76595     14.73901         2.907418      0.728362      0.171290
O      15.55404      2.14002      2.13369        -1.746996     -1.411296     -0.188934
O      15.38898      1.62630     14.91754         2.552822      0.797127      0.362004
O      15.41254     13.74875      1.99850         0.819268     -0.359529      0.398502
O      15.44760     13.92115     14.74835        -0.071962     -0.626001      0.305850
O       3.93633      2.22947      6.61342         0.543102     -0.719752     -0.757995
O       3.82453     13.63734      6.39939         1.171738      0.791906      1.134350
O       0.10330      2.01760      6.31724        -2.252765     -0.621002      0.111409
O      15.51463     13.85164      6.68353         0.312888     -0.009298     -0.409412
O       3.88692      2.24622     10.40658         0.123853     -0.546748      0.961151
O       4.08121     13.83628     10.83380        -1.479052     -0.292393      0.223627
O       0.08222      2.00002     10.67180        -0.507272      0.098012     -0.269197
O       0.12725     13.64782     10.45816        -0.661002     -0.120056      0.351383
O       3.76677      5.86544      2.40582         1.178901     -0.436696     -1.390504
O       3.89821      5.75579     14.71982         0.505521     -0.568817      0.107595
O      15.59732      5.59361      2.42720         0.021511      1.124912     -0.620791
O       0.01205      5.61924     14.45490        -0.625196      0.439389      1.084076
O       3.90533      5.91828      6.45297        -0.448910     -0.820583     -0.004026
O       0.00392      5.77750      6.23095        -0.812668     -0.419344      0.453732
O       4.04859      5.72747     10.45356         0.053965     -0.188687      0.941383
O      15.46816      5.82485     10.52930         0.215760      0.213483      0.560368
O       3.66712      9.68139      2.46240         1.796999      0.882713     -0.177750
O       3.83378      9.73301     14.65301         1.158048     -0.786680      1.068420
O      15.54238      9.61609      2.04492        -2.465460      0.877646      0.314423
O      15.50797      9.96136     14.88770         1.476664     -0.284567     -0.364290
O       3.87350      9.63159      6.32142        -1.101679      0.129939      0.509144
O       0.01379      9.90835      6.75208         0.095011     -0.586798     -0.715637
O       3.92911      9.72641     10.47642         1.571193     -0.978334      0.545952
O       0.21089      9.45662     10.72760        -1.706033      0.274820     -0.608233
O       7.57193      2.10778      2.23661         1.290582     -0.611787      0.708757
O       7.96280      1.90753     14.95139         0.092479     -1.034573     -0.705370
O       7.65517     13.77307      2.63562         1.441173      0.531704     -1.391745
O       7.72775     13.63790     14.94393         0.035831      0.066968      0.180901
O       7.79060      1.92140      6.58461         0.077798     -0.026582     -0.207605
O       7.76198     13.62656      6.67369        -0.738320      0.341233     -1.029763
O       8.01085      1.99966     10.25656        -1.640553     -0.285804      1.396018
O       7.96464     13.84010     10.35872        -1.480627     -0.809300      1.506860
O       7.69624      6.09683      2.44244        -0.221493     -0.640398     -0.980437
O       7.86009      5.89240     14.55328         0.102867      0.343202      0.180172
O       7.88748      6.21958      6.12407         0.390030     -0.526611      0.919545
O       7.89534      5.79930     10.76259         0.975446     -0.060779     -0.542391
O       7.86579      9.78506      2.49025        -1.795578     -0.189582     -0.094877
O       7.60582      9.80778     14.75805         0.567010      0.136279     -0.608674
O       7.76001      9.36225      6.46423         1.408793      0.615273     -0.237410
O       7.84518      9.77130     10.55467        -0.747376     -0.114227      0.036179
O      11.49777      1.92128      2.46727         1.495817      0.628328      0.138467
O      11.64185      1.91647     14.67680        -0.131836      0.499891      0.169372
O      11.64365     13.92575      2.39398        -1.144965     -1.211932      0.023287
O      11.73125     13.57965     14.41687        -1.220520      1.117744      0.114873
O      11.61768      2.20794      6.23063        -0.069151     -1.683998      0.460845
O      11.69048     13.50333      6.31670        -0.236444      0.978658      0.896159
O      11.76519      1.80009     10.60718         0.404260      0.597844     -0.557401
O      11.69680     13.57587     10.76854         1.170889      0.157425     -0.276129
O      11.70970      5.62795      1.99835        -1.445099      0.569208      0.598967
O      11.58897      5.80462     15.14377         0.140252      0.283259     -0.489186
O      11.72292      5.78117      6.51287        -1.170951      0.064106      0.090330
O      11.74903      5.84944     10.40722        -1.326759      0.601331      0.126095
O      11.63158      9.89067      2.26074         0.476363     -0.327666     -0.085516
O      11.66950      9.70363     14.71890        -0.757677     -0.407275      0.029684
O      11.77686      9.72788      6.58450        -1.253322     -0.478451      0.205025
O      11.64439      9.98132     10.76059         0.046345     -0.692252     -0.487494
O       1.84565      3.81939      2.23659         1.206029      1.672397      0.048092
O       1.92344      3.84538     14.53170        -0.069178     -1.455169      1.167318
O       1.88764     15.41785      2.27499         0.118815      0.226192      0.176868
O       2.04274      0.06517     14.92364        -0.587710      0.686784     -0.401120
O      13.61395      3.84533      2.58171        -1.217956      0.595404     -0.540663
O      13.66289      3.94268     14.91121        -0.048601     -0.486925      0.452200
O      13.59891     15.51991      2.14879         0.139157      3.190444     -0.022138
O      13.45649     15.53960     14.61316         0.180214      0.966930      0.527552
O       1.92884      3.89084      6.40668         0.321257      0.637082     -0.053834
O       2.17520      0.10693      6.68409        -0.664778     -2.554881     -0.869977
O      13.43011      3.87084      6.21180         1.399227     -1.001667     -0.436709
O      13.49634      0.17562      6.50433        -0.187685     -1.041163     -0.259678
O       1.68323      3.88214     10.73894         1.179130     -0.890995      0.565203
O       1.78104     15.52807     10.75009         1.231429      1.236134      0.017632
O      13.54793      4.13626     10.85217         0.114320     -1.638260     -0.514173
O      13.78278      0.06246     10.74075        -0.095052     -1.342948      0.501315
O       1.75562      7.81597      1.97409         0.678137     -2.333265      0.263289
O       1.72559      7.72464     14.76751         0.502097     -1.093699      0.462036
O      13.40147      7.83526      2.15572         0.147973      1.811691      0.175020
O      13.84548      7.80044     14.84067        -0.972931     -0.302166     -0.367344
O       1.76519      7.64168      6.61849         0.332314      1.798076     -0.263763
O      13.80297      7.66235      6.64303        -0.202529      2.165001     -0.503716
O       2.01400      7.55738     10.80901         0.743269      4.703662     -0.129087
O      13.69456      7.92849     10.86432        -1.336676     -0.964139     -0.783010
O       1.59527     11.76068      2.19029         0.293547     -0.146158      0.478849
O       2.02294     11.88147     14.64388        -0.421216     -1.386010      0.075639
O      13.60981     11.75152      2.42221        -0.123745     -0.451202     -0.439077
O      13.36493     11.74666     14.77427         1.263661      0.741805     -0.031185
O       1.98214     11.87545      6.72540        -0.293569     -0.370399      0.026438
O      13.47209     11.79232      6.37724         0.963912      0.565348      0.216802
O       1.79228     11.53407     10.68926         0.805089      1.781632     -0.153809
O      13.99229     11.58719     10.43006        -0.449227      1.986638      0.796493
O       5.94571      3.95774      2.20551        -0.898305      1.129152     -0.055480
O       6.29229      3.90142     14.71856        -1.370578     -0.928113      0.569517
O       5.76570      0.00872      2.40256        -0.442954      0.105443     -0.210081
O       6.01097     15.58579     15.12786        -0.555046     -1.094214     -0.605462
O       6.10118      4.05328      6.47176        -0.014931     -2.635259      0.060743
O       5.69066      0.03827      6.40563         0.720706     -0.498648     -0.102284
O       6.18960      3.81762     10.57765        -0.345343     -0.339804     -0.468670
O       5.95554      0.11316     10.37791         0.248792      0.611084      1.253126
O       5.86782      7.91555      2.13500        -0.864160     -3.107667      0.542534
O       5.90894      7.56714     14.74678        -0.805645      2.718362     -0.674801
O       5.61861      7.67298      6.05867         0.744291      1.981269      1.223993
O       5.99989      7.67858     10.57491        -0.246480      1.671254      0.029209
O       6.02015     11.69729      2.42084        -0.693348     -0.977104     -0.241979
O       5.62401     11.62529     14.64622         0.729805      1.467984     -0.175371
O       5.63182     11.56361      6.48822         1.180297      0.818745     -0.587366
O       5.68465     11.70492     10.67826         1.379152     -0.232175     -0.527027
O       9.51524      4.01333      2.49396         0.456016      2.987681      0.550930
O       9.54762      3.98106     14.49425         1.115776     -0.818502      0.233246
O       9.65765      0.15262      2.16794        -0.594419     -1.739611     -0.585344
O       9.98899     15.56758     14.59628        -1.382615     -0.785984     -0.145943
O       9.65758      3.80401      6.30277        -0.298379      1.799193      0.078804
O       9.72452     15.56629      6.63535         0.544879      0.717539      0.198190
O       9.98369      3.88608     10.24976        -0.370072      0.900678      0.915170
O       9.73999     15.52279     10.23677         0.873943      0.900132      1.009395
O       9.70006      7.80606      2.52059         1.231887      0.479016     -0.871103
O       9.60884      7.89147     14.94966         0.582773     -0.212306     -0.767830
O      10.06240      7.76364      6.49927        -1.169382      0.689270     -0.422179
O       9.77252      7.70186     10.70136         0.354301      1.889453     -0.766568
O       9.48604     11.91480      2.36947         0.862735     -1.275461     -0.698431
O       9.73118     11.76400     14.89499        -0.371776     -0.320358      0.037740
O       9.64477     11.53842      6.41533         0.016026      0.053966     -0.087820
O       9.73004     11.73631     10.41233        -0.245294     -1.493552      0.585930
