  # total energy = -7844.11004922 
CRSYTAL
PRIMVEC
    15.6080000000000005    0.0000000000000000    0.0000000000000000
     0.0000000000000000   15.6080000000000005    0.0000000000000000
     0.0000000000000000    0.0000000000000000   16.6239999999999988
PRESSURE
1.95625 1.91955 -3.15662 -0.230147 -0.048295 -0.233625
PRIMCOORD
320 1
Pb       3.72940      4.07263      4.14875         0.791402      0.074262      0.445003
Pb       3.81873      4.07436      0.20984         0.964312     -1.052359     -0.241911
Pb       3.87746      0.09240      4.34956        -0.151325     -0.612952     -0.117303
Pb       3.80984     15.40556     16.38147        -0.021424      0.767417      1.533337
Pb      15.58911      3.98263      4.20965         0.322028      0.527405     -0.453728
Pb       0.06860      3.74795     16.55315        -0.457780      0.768635      0.305872
Pb       0.02898     15.47751      4.42442        -0.500900     -0.906094     -0.362447
Pb       0.26651     15.41426     16.61666        -0.152063     -1.235882      0.566444
Pb       3.92263      3.77487      8.35119        -0.287076      0.017414     -0.951147
Pb       3.84769     15.57942      8.13031        -0.284652     -0.467981      0.145320
Pb      15.44004      4.08486      8.21364         0.675675     -0.480261      1.223676
Pb      15.56959      0.26972      8.29933        -0.645212     -0.994557      0.993157
Pb       4.14508      3.83911     12.41382        -0.214611     -0.566886      0.426449
Pb       3.87565     15.47016     12.35125        -0.036733      1.736645      0.927515
Pb      15.54591      3.64161     12.51075         0.273457      0.796104      0.523651
Pb       0.14675      0.20573     12.39736        -1.908043     -0.993860      0.591524
Pb       3.68009      7.81277      4.29652         1.331858      0.349885     -1.067468
Pb       3.66523      8.02547      0.11517         0.187402     -0.171470      0.510637
Pb      15.43971      8.03742      4.14117        -0.447437     -0.670715      0.399820
Pb      15.57000      7.88788      0.22427         0.398473      0.642861      0.001551
Pb       3.69598      7.92546      8.40559         1.405268      0.039373     -0.644909
Pb      15.59040      7.51290      8.40936        -0.553488      0.928296      0.497416
Pb       3.92959      7.87396     12.54940         1.166762     -0.389837      0.389027
Pb       0.20748      7.57816     12.74042        -1.954763     -0.062055     -0.070607
Pb       4.01030     11.62186      4.07236        -0.042655      0.121469      0.617281
Pb       3.93090     11.69339     16.47291        -0.937707     -0.068000      0.809091
Pb      15.45202     11.63511      4.54391        -0.609575      0.548765     -0.226771
Pb       0.04656     11.75022      0.08203         0.157995      0.573929     -0.010119
Pb       4.04211     11.70652      8.64889        -1.031669     -0.516368     -1.502280
Pb      15.58198     11.28878      8.44167        -0.011187      0.333965      0.367718
Pb       3.50727     11.81108     12.38023         0.697143     -0.122703      0.187061
Pb      15.54709     11.68678     12.40327        -0.424225     -0.360902     -0.574751
Pb       7.71635      4.10351      4.36385         0.011916     -0.729594     -1.662009
Pb       7.86035      3.63830      0.09768         0.084130      0.833088      0.146877
Pb       7.50844      0.19627      4.00523         0.939794     -1.047356     -0.283789
Pb       7.80307      0.26414      0.13664        -0.300813     -0.736195     -0.132347
Pb       7.99754      3.91857      8.70587         0.155108     -0.099126     -0.795035
Pb       7.83167      0.24753      8.32761         0.233651     -1.226771     -0.306980
Pb       7.92186      3.67042     12.67147         0.082875      0.266134      0.284844
Pb       7.61654     15.27462     12.51123         0.093551      1.167663      0.808909
Pb       7.84550      7.72822      3.91110        -1.059991     -0.433281      1.454864
Pb       7.92392      7.91565     16.34145        -0.218386     -1.191696      0.823382
Pb       7.91685      7.65172      8.23858        -0.363158      0.598097     -0.159027
Pb       7.63364      7.67419     12.63711         0.434744      0.083562     -0.168262
Pb       7.61076     11.89506      4.29710         0.318425     -0.565084     -0.338476
Pb       7.55137     11.30479     16.60462         0.650877      1.084745     -0.011594
Pb       7.49782     11.91977      8.61563         1.534556     -0.298087     -0.532286
Pb       7.84853     12.03646     12.62617        -0.316126     -1.737928     -0.008299
Pb      12.03583      4.08911      4.02713        -0.988371     -0.848750     -0.580762
Pb      11.87662      3.79480      0.13407        -0.785022      0.273599     -0.550598
Pb      11.68535      0.05778      3.91771        -0.121709     -0.635964      1.476881
Pb      11.86063     15.53628      0.12349        -0.248139     -0.177031     -0.685710
Pb      11.57461      3.90322      8.29012         0.185719     -0.534830      0.048972
Pb      11.36895      0.14871      8.22743         1.277464     -0.747454      1.227469
Pb      11.80397      3.98544     12.66047        -0.597603     -0.409291      0.221949
Pb      11.73213      0.10692     12.26639         0.893262     -0.073864     -0.346482
Pb      11.75276      7.81213      4.02257         0.836905      0.500900      0.646881
Pb      11.73429      7.73164     16.51334        -0.782524     -0.333481      0.640473
Pb      11.41447      7.85952      8.16924         1.015261     -1.806013      0.772725
Pb      11.78331      7.82259     12.29585        -0.815560     -0.461017      1.068947
Pb      11.63585     11.79536      4.36366         0.118772     -0.419017     -0.611645
Pb      11.67453     11.69563      0.26031        -0.520256     -0.080331     -0.371996
Pb      11.87939     11.16535      8.18822        -0.476492      1.669887      0.369877
Pb      11.48830     11.63258     12.27393         0.178914      0.316096      0.056039
Ti       1.85327      1.86279      2.09218         1.514439     -0.336657     -0.101734
Ti       2.09233      1.94006     14.70294         0.635617     -0.495592     -1.485954
Ti       1.97343     13.56713      2.37441        -1.013025      0.910919     -1.110358
Ti       1.80983     13.61411     14.57574        -0.121893      0.064496      1.257073
Ti      13.69029      1.78022      1.97877        -0.780472      1.066509      1.571951
Ti      13.89894      1.85929     14.71437        -3.748534      0.485212     -2.263434
Ti      13.59036     13.65360      2.16387         2.024927     -1.167603      0.161192
Ti      13.50414     13.61215     14.23483         1.218219     -0.006268      2.212578
Ti       1.91850      1.95299      6.24497         1.467884     -0.367461      0.524158
Ti       1.86242     13.54128      6.41590         0.570077     -0.899741     -1.249864
Ti      13.76373      1.95261      6.20666        -2.761859     -0.753290      1.822344
Ti      13.50058     13.81234      6.50389         1.262347     -1.732203     -0.360835
Ti       1.87671      2.03259     10.48969         1.292956     -3.534873      2.200994
Ti       1.80245     13.79995     10.42750        -1.152369     -0.691913      0.943951
Ti      13.67751      2.08555     10.40774        -1.593242     -3.097812     -0.983721
Ti      13.77426     13.45163     10.32886        -1.988716      1.458067      0.390425
Ti       1.89924      5.90351      2.22849        -0.179770      0.219487      1.259018
Ti       1.98210      5.75935     14.86245         0.467144      0.286897     -0.339831
Ti      13.67622      5.82998      2.12616         1.181348      1.233437      0.093485
Ti      13.81769      5.97369     14.92443        -4.013794     -0.913508     -0.418793
Ti       2.08946      6.12652      6.40173        -0.535898     -2.478320     -0.396626
Ti      13.71434      5.79501      6.44614        -0.853610      1.891506      0.092419
Ti       1.88509      5.75091     10.59736        -1.396046     -1.370575     -0.041662
Ti      13.59974      5.77753     10.69356        -0.323671      1.683581     -0.025163
Ti       1.88354      9.92561      2.40918         0.747306     -0.893910     -1.956521
Ti       1.72684      9.74452     14.53677        -0.192509      0.294248      2.126046
Ti      13.54782      9.87753      2.20729         0.558892     -1.062993      1.021317
Ti      13.49429      9.84315     14.92801         0.789918      0.172328     -1.363722
Ti       1.99975      9.80042      6.33546         0.694039      1.778105      0.684140
Ti      13.70561      9.59026      6.37118        -0.027678     -0.070893     -1.007742
Ti       2.00727      9.41804     10.62730        -3.187878      6.430217     -0.265448
Ti      13.61240      9.59863     10.68422         2.068901      1.711961      1.102896
Ti       5.62737      1.88259      2.15662         0.777863      0.133443     -1.046607
Ti       5.89645      2.07326     14.66625         0.125334     -2.215738     -0.575022
Ti       5.84566     13.47264      2.33666         0.934195      1.065967     -0.216086
Ti       5.69956     13.67235     14.82158         2.383160      0.387628     -1.744138
Ti       5.91118      1.87535      6.23013        -0.761327      1.591450     -0.423000
Ti       5.84679     13.55161      6.46423        -1.044986     -0.979671     -0.829654
Ti       5.85237      1.89321     10.27389        -1.997016     -0.387410      3.574905
Ti       5.54472     13.57540     10.67000         2.540032      1.321661      1.228193
Ti       5.94364      5.71970      2.08179         0.749373      1.609805      1.086427
Ti       5.82844      5.75032     14.76428         0.640630      0.508049     -0.680441
Ti       6.09209      5.77274      6.41353        -2.734856      0.300880     -1.738384
Ti       5.64378      5.88446     10.34389         2.625295     -0.608972     -0.375333
Ti       5.89467      9.61641      2.16832        -0.583994     -1.074335      3.926840
Ti       5.71040      9.74155     14.48202         0.749243     -0.134622     -1.970125
Ti       5.96782      9.54002      6.23694        -1.404866      1.635570     -0.816387
Ti       5.94930      9.69179     10.45882         0.517939     -0.197718      1.193715
Ti       9.75587      1.89993      2.34407         0.031900      1.573035     -0.782090
Ti       9.95917      1.78632     14.77131        -0.586777      1.022311     -0.755815
Ti       9.82865     13.68371      1.96911        -2.388207     -0.825757      0.459510
Ti       9.88985     13.71623     14.57730        -2.667476     -0.414671     -0.195553
Ti       9.72236      1.73817      6.23600         0.654773      0.874735     -0.771207
Ti       9.73651     13.53302      6.17150        -0.988318      1.076007      0.663205
Ti       9.63272      1.93648     10.67804         2.903892     -0.109604      0.927965
Ti       9.64384     13.75832     10.51144         1.023552     -3.394377     -0.897843
Ti       9.89825      5.90658      2.16161        -3.013214     -1.974289     -1.328151
Ti       9.79014      5.64259     14.68424         0.294178      0.582750     -0.915559
Ti       9.76017      5.63104      6.15629         1.986559      0.636524      0.028453
Ti       9.65261      5.85544     10.54019         1.074669     -0.431449      0.922325
Ti       9.68796      9.65114      2.42769         0.466885      2.629039     -1.979944
Ti       9.71251      9.67233     14.53910         0.239047      0.748285     -1.771278
Ti       9.63934      9.64721      6.36184         0.199934      0.325761     -0.228818
Ti       9.69253      9.63774     10.41568        -0.691672      1.984221      1.169096
O       2.09981      1.95113      0.20852        -1.212121      0.284287      0.999988
O       1.72959      1.87815     12.80002         0.477507      1.392333      1.015825
O       1.94590     13.80070      0.15986        -0.700210     -0.605548     -0.287235
O       1.99838     13.53280     12.80489         0.176209     -0.091018     -1.172511
O      13.43372      1.96632      0.19444         1.037119     -1.524358     -0.291455
O      13.63018      2.03500     12.83749         0.968446      0.508254      0.373386
O      13.84914     13.60368      0.31106        -0.426064      0.329799      0.282744
O      13.60589     13.28712     12.52138         0.049124      0.092451      0.334982
O       2.11522      1.75983      4.46056        -0.610721      0.306647     -0.363743
O       2.09328     13.52514      4.42838         0.015166      0.004526     -1.772533
O      13.83568      1.87988      4.46300        -1.293255      0.050015     -0.624600
O      13.63188     13.81172      4.22409        -0.180499     -0.430917      0.989415
O       1.89153      1.77642      8.82320         0.059399     -0.758576     -4.681458
O       1.83024     13.96473      8.72602         0.098402     -0.628844     -2.219758
O      13.62720      1.93333      8.57345         1.040523      0.251910      0.276798
O      14.06698     13.61962      8.55761        -0.759414      0.484854     -1.196991
O       1.99317      5.68254      0.13773        -0.539408      0.646476      0.988023
O       1.66313      5.77351     12.56952         1.044003      0.589971     -0.791303
O      13.86744      5.83948      0.23950        -0.947563      0.114854     -0.450265
O      13.75852      5.97872     12.55601         0.016459     -0.844672      0.073510
O       1.63434      5.47655      4.33518         1.416872      1.746808      0.492445
O      13.77635      5.99806      4.17311        -0.336441     -2.242354      0.400984
O       2.05270      5.91297      8.44884        -0.155991      0.129564     -0.703157
O      13.77264      6.07872      8.41060        -0.239342     -0.561272     -0.984914
O       1.87275      9.56727      0.30466         0.098533      0.679581      1.379571
O       1.97312      9.84614     12.60261         0.143148     -1.498700      0.834815
O      13.75701      9.55478      0.17019        -0.486227      0.865010      0.777892
O      13.64855     10.07633     12.61528        -0.455960     -1.000908     -0.631554
O       1.99043     10.08166      4.27178         0.286065     -0.201290      1.227476
O      13.63257      9.80782      4.25792        -0.218507     -0.320684      0.202996
O       2.06207      9.47370      8.17717        -0.992912      0.553574      1.706000
O      13.68036      9.44276      8.23388         0.398119      0.604101      1.444292
O       5.77541      2.10407      0.35795         0.549402     -0.527531      0.139408
O       5.66590      2.06002     12.85645         0.911870      0.551046     -0.133799
O       6.11375     13.50468     16.52294        -0.503673     -0.008229      1.012545
O       5.46447     13.50243     12.61750         0.389057      0.866731     -0.506084
O       5.74947      1.93989      4.31439         0.255978     -0.809364      1.598308
O       5.55599     13.56168      4.25159         1.126402     -0.058806     -0.153046
O       5.96860      2.18317      8.57685        -0.203726     -0.902405     -1.472576
O       5.73871     13.43131      8.31888        -0.016504      0.374044      2.254675
O       5.83253      5.74352      0.33749        -0.719017      0.135628     -0.815414
O       5.84019      5.70464     12.87029         0.111640      0.125330      0.843600
O       6.14557      5.73985      4.45036        -0.320224      0.241436      1.022918
O       5.70918      5.90557      8.40527         0.364691     -0.849468      1.952239
O       5.68279      9.58755      0.49892         0.782843      0.425941     -4.904393
O       5.84197      9.74974     12.55698        -1.305674     -0.858879      1.389649
O       6.24373      9.59648      4.45077        -1.528604      0.227692      0.700910
O       5.79705      9.70770      8.69521        -0.110064      0.195922     -0.634721
O       9.73322      2.08649      0.24625         0.442049     -1.045038     -0.444177
O       9.88408      1.72799     12.74860        -0.869698      0.377725     -1.849596
O       9.56773     13.84418      0.17595         0.393987     -1.315471     -0.215063
O       9.50391     13.79136     12.69115         1.924951     -0.330032      0.105479
O       9.69154      1.49075      4.37492         0.130475      1.100055      0.956737
O       9.85989     13.72649      4.39476         0.165197     -0.806409     -0.092313
O       9.63324      1.77488      8.49551        -0.715370      0.447446      1.438928
O       9.55487     13.41451      8.77158        -0.639251      1.097933     -0.811416
O      10.00319      5.87632      0.35496        -0.536370     -0.323824     -0.924120
O       9.90493      5.74541     12.74384        -0.416679      0.117202      1.257158
O       9.72283      5.90831      4.33649         0.859048     -1.209200      1.365373
O       9.82911      5.57207      8.70132        -0.885014      0.636512     -0.000818
O       9.66654      9.56750      0.25551        -0.472574      0.394035      0.360379
O       9.72356      9.56036     12.56500         0.523987      0.091970      1.519137
O      10.17458      9.72645      4.59839        -1.241644     -0.188244     -1.411527
O       9.71428      9.52710      8.40549         0.588606      0.405542      1.310261
O       3.83831      1.93322      2.37146        -0.446407     -0.472350      0.083708
O       3.88297      1.96811     14.83205        -1.390749     -0.098044     -0.039264
O       4.12592     13.43555      1.98896        -2.635014      0.632045     -0.132398
O       3.77870     13.54851     14.88374         1.116732      0.149475     -0.202978
O      15.50507      2.00681      2.43660         1.184986     -0.418533     -1.168447
O       0.06105      1.75237     15.02067        -0.036851      0.912830     -0.045357
O       0.11339     13.52624      2.14887         0.250391      0.046996      1.039099
O      15.56812     13.54998     14.54820        -1.293062     -0.448222      0.595700
O       3.84350      1.77622      6.69101         0.388636      0.155977     -0.359952
O       3.92278     13.44326      6.47562        -0.478575     -0.011941      0.462159
O       0.00610      1.60524      6.28673         0.937254      0.686135      0.786545
O      15.58382     13.69350      6.12320         0.135600      0.253233      0.556883
O       3.88307      1.89657     10.75751         0.968950      0.200411     -0.583973
O       3.67744     13.74639     10.82202         0.749258     -0.354294     -1.489966
O      15.51706      2.24605     10.71962         0.218833     -1.209113      0.165930
O      15.60479     13.65269     10.81915         0.010974     -0.166410      0.340529
O       3.91421      6.16288      2.52714        -0.373869     -1.679725     -0.539902
O       3.82762      5.85648     14.79135        -0.439471      0.461718     -0.011852
O      15.60589      5.66273      1.94791         1.216663     -0.238923      1.512898
O      15.49345      5.83877     14.68312         4.901970     -0.490907     -0.082351
O       3.86366      5.92139      6.16788        -0.913623     -0.143508      0.452119
O      15.54191      5.74851      6.38558         1.228971     -0.375849      0.538627
O       3.91476      5.67127     10.76010        -1.470117      1.308885     -0.414130
O       0.00837      5.83613     10.36250         1.521741      0.336963      0.188141
O       4.03548      9.43010      2.51214        -0.705354      0.701994      0.124931
O       3.89790      9.44370     15.00198        -0.394265      1.421760     -1.667060
O       0.09182     10.04329      2.42926        -1.077004     -0.498459     -0.526287
O      15.44452      9.80770     14.75146         1.600594      0.430224     -0.514197
O       3.97929      9.54955      6.43407        -0.293086      0.598977     -0.594567
O      15.58920      9.77027      6.17177         1.259184      0.660291      0.358309
O       3.80721      9.27357     10.47029         2.495540      1.850310      0.533025
O       0.04067      9.63387     10.57984         0.722852      0.035324     -0.425046
O       7.93243      1.76030      2.26669        -1.848739      0.194175      0.188586
O       7.92949      1.87761     14.70021        -2.427989      0.368057      0.723586
O       7.71323     13.58068      2.36874         2.085974     -0.013621      0.132482
O       7.65576     13.68872     14.23119        -1.078920      0.043347      1.531279
O       7.76820      2.05717      6.31735        -0.914759     -1.239539      0.375617
O       7.70658     13.58388      6.35438         1.210948     -0.110173     -0.085432
O       7.68784      1.92331     10.64786         1.660704      0.306195      0.003610
O       7.56950     13.60870     10.81330         1.224891      0.175349     -0.541654
O       8.01249      5.67517      2.17714        -1.482851     -0.450133      0.730958
O       7.78042      5.56214     15.09755         0.073471      0.713778     -0.846777
O       7.94311      5.69390      6.40142        -1.353124     -0.423204      1.192546
O       7.83390      5.77066     10.68980        -0.668360     -0.003904     -0.438561
O       7.92557      9.90363      2.68853         0.758577     -0.615047     -1.019164
O       7.68935      9.82346     14.53745         0.383280     -1.416261      1.565469
O       7.81285      9.48697      6.57104         1.588333      0.345042      0.293351
O       7.85439      9.85994     10.55003        -0.746963     -0.593332     -0.417061
O      11.61764      1.80382      2.38219         3.073999     -0.246989     -0.151669
O      11.73554      1.95607     14.71778         0.342274      0.035370      0.904309
O      11.73440     13.65616      1.88538        -0.740360     -0.636534      0.360898
O      11.61894     13.38177     14.71726         0.787128      0.699975      0.045731
O      11.72123      1.76043      6.66849        -0.880116      0.794939     -1.562760
O      11.66444     13.72686      6.55910         0.130479     -0.111707     -0.079260
O      11.67482      1.83607     10.62798        -0.458377      1.010768      0.027507
O      11.78601     13.59941     10.65953         0.612801     -0.319122     -0.164977
O      11.72589      5.82476      2.32093         2.194590      0.010225      0.700016
O      11.83946      5.81277     15.03237        -1.768640     -0.541728     -1.012508
O      11.70859      5.63205      6.62316        -0.302923      0.707677     -1.077112
O      11.69884      5.78839     10.71545         0.922260      0.520492     -0.019627
O      11.76667      9.66602      2.25824        -0.724507     -0.688551     -0.074950
O      11.60467      9.28634     14.87209         0.624545      1.656892     -0.694079
O      11.76293      9.30160      6.50264        -0.646465      1.518379     -0.071074
O      11.72805      9.71413     10.58965        -0.120522     -0.039150     -0.584801
O       2.16871      3.83806      2.53328        -1.376759      0.007222     -1.808955
O       2.09847      3.94952     14.75961        -1.466615     -0.968416      0.302459
O       1.99077     15.54221      2.09281        -0.131851      1.235427      1.181110
O       1.77733     15.54674     14.68726         1.130244      0.206431      0.651259
O      13.46722      3.73439      2.04252         0.141434      1.042350      1.292311
O      13.70804      3.80539     14.89470         0.744861     -0.369992      0.335038
O      13.41878     15.50143      2.32487         1.231660      2.134096     -1.072547
O      13.30973     15.45608     14.48161         1.157338     -0.076744      0.910963
O       1.99278      3.68421      6.63365        -0.454762      0.878562     -0.353362
O       2.10379     15.29465      6.48105         0.038043      3.800677      0.213581
O      13.62137      3.85155      6.67355         0.552219     -0.214483     -1.233847
O      13.61715      0.00015      6.66377         0.499190      0.403041     -0.466430
O       1.80789      3.70616     10.44176         1.002462      7.751581      0.611447
O       1.71615      0.13022     10.86012         0.796364     -2.245931     -0.298849
O      13.75075      4.03530     10.34096        -0.564125     -0.713869      0.604607
O      13.80510      0.19552     10.76845         0.138096     -0.480635     -0.242429
O       1.83125      7.80220      2.70345        -0.165337     -1.123489     -1.263706
O       1.68169      7.95331     15.11542         0.489966     -1.781161     -2.193506
O      13.77398      7.78102      2.32397         0.036102     -0.245613     -0.447839
O      13.71399      7.77096     14.76345         0.236038      0.612255      0.145689
O       1.93393      7.92965      6.16652        -0.498578     -2.611691     -0.286850
O      13.96774      7.81990      6.05393        -1.086020     -1.975595      0.975494
O       2.04005      7.76132     10.43971        -1.098818     -5.578652      0.428891
O      13.84749      7.84538     10.74497        -0.794120     -1.131059     -0.369426
O       2.21638     11.76856      2.09083         0.078119     -1.102605      0.307243
O       2.04980     11.60039     15.02191        -0.642898     -0.502779     -0.959243
O      13.49448     11.65032      2.49979        -0.041406      1.433831     -1.313785
O      13.43352     11.68174     15.10812         0.316484     -0.596037     -0.813010
O       1.88372     11.70074      6.74307         0.038427     -0.990296     -0.161674
O      13.70580     11.76391      6.57357        -0.747832     -0.692100     -0.315951
O       1.95095     11.65473     10.49257         0.706732      0.339269      0.058371
O      13.92667     11.59657     10.32506        -0.565152     -0.265829     -0.078018
O       5.86006      3.90904      2.47381        -0.228785     -0.432440     -0.214184
O       5.67074      3.81852     15.18341         0.175885      1.690597     -1.097683
O       5.96750     15.58448      2.06849        -0.607547     -0.015311      0.957225
O       5.61116      0.18182     14.83640         0.796403     -2.446099      0.034104
O       5.66987      3.80608      6.52294         0.370657      0.280374     -0.136508
O       5.74164     15.50823      6.52527         0.435045      1.708219     -0.331072
O       5.78783      3.99237     10.74430         0.435608     -0.739634     -1.093174
O       5.92669     15.50424     10.58275        -1.260945      1.243072     -0.461942
O       6.27643      7.75818      2.33908        -0.327823     -1.045288     -0.223341
O       5.77451      7.71112     14.73288         1.057321      0.137103     -0.147475
O       5.90866      7.66213      6.51168         0.621056     -0.722294      0.265129
O       6.04516      7.78543     10.75604        -0.786720     -1.110092     -0.148040
O       5.99333     11.49570      2.25623        -0.314115      1.950575      0.527303
O       5.86023     11.59341     14.66862        -1.025137      0.169601      0.856412
O       6.03168     11.53249      6.41652        -0.379959      0.115163     -0.110150
O       5.85011     11.79165     10.61244        -1.304291     -2.098150     -0.968327
O       9.98741      3.71130      2.47606        -0.211232      1.380143      0.424495
O       9.59641      3.73083     14.52110         1.202675      1.549158      0.719325
O       9.91702     15.48972      2.28422        -0.387763     -0.316772     -0.305981
O       9.74633     15.53259     14.86024         0.544587     -0.387398      0.138812
O       9.69258      3.66677      6.66460         0.582350      1.430061     -0.940038
O       9.52881     15.47132      6.53617         0.292101      0.861829      0.921998
O       9.84930      3.86571     10.84358        -1.063026     -1.756872     -0.595275
O       9.97903     15.48850     10.55848        -1.446932      2.970213      0.096965
O       9.63434      7.75416      2.38550         1.180813      0.767155      0.097366
O       9.57634      7.62309     14.71993        -0.276369     -0.037344      0.269922
O       9.65349      7.60214      6.57800         0.536604     -0.327573      0.041195
O       9.78414      7.77520     10.73828        -0.186995     -0.449535     -0.930862
O       9.98205     11.60748      2.39958         0.040675      0.685679     -0.145321
O       9.78521     11.53430     14.57143        -0.266484      0.290768      0.600727
O       9.88290     11.73319      6.52849        -0.093157     -2.159501     -0.463614
O       9.81428     11.68902     10.72560        -0.398116     -1.164643     -0.063455
