  # total energy = -7843.84976828 
CRSYTAL
PRIMVEC
    15.6080000000000005    0.0000000000000000    0.0000000000000000
     0.0000000000000000   15.6080000000000005    0.0000000000000000
     0.0000000000000000    0.0000000000000000   16.6239999999999988
PRESSURE
1.96998 2.25117 -0.648685 0.25007 0.382225 0.278906
PRIMCOORD
320 1
Pb       3.45035      3.56444      4.20098         0.919922      0.375011     -0.462471
Pb       3.70843      3.87766      0.02033         0.226980     -0.946819      0.458190
Pb       3.60721     15.43793      3.94189         0.682696      0.288061     -0.256998
Pb       3.99965      0.01764     16.51783        -1.115016      0.376079      0.713250
Pb      15.29700      3.87983      4.09248         0.817726      0.937481     -0.115042
Pb       0.09842      3.93623     16.31406        -0.545899     -0.277201      0.890462
Pb       0.14224     15.50386      4.04809         0.251944     -0.463443     -0.479702
Pb      15.36728     15.53818      0.12414         1.625751      0.527520     -0.058680
Pb       3.90513      4.09290      8.27951        -0.041294      0.052245     -0.510693
Pb       4.02204     15.56901      8.04647         0.434591     -0.091424      0.575097
Pb       0.24428      3.73723      8.65920        -0.109664      0.130859     -0.389611
Pb       0.34926      0.03682      8.74127        -1.309500      0.518964      0.293926
Pb       3.97122      3.91851     12.71205        -0.620220     -0.679383     -0.512758
Pb       3.84240     15.42079     12.72308         0.024310     -0.000660     -0.078072
Pb      15.52461      4.12838     12.39050         0.176957     -0.824221     -0.534146
Pb      15.47398     15.58445     12.99843         0.552601     -0.002255     -0.875084
Pb       3.90549      7.31790      4.19907         0.144249      1.381004     -0.067333
Pb       3.89246      7.60116     16.57178         0.168944      0.364869      0.130899
Pb      15.49646      7.55848      4.56661        -0.293223      0.682600     -1.015242
Pb      15.37851      7.75738      0.04895         0.695182      1.014398     -0.000871
Pb       3.86254      7.65005      8.05565        -0.387419     -0.091320     -0.491779
Pb      15.52416      7.86171      8.36075         0.158008      0.386653     -0.875759
Pb       4.07537      7.85034     12.14414         0.092837      0.028476     -0.213386
Pb      15.32294      7.98343     12.52692         0.324039      0.124761     -0.247231
Pb       4.14390     11.56337      3.94780        -0.768506     -0.622762      0.990333
Pb       4.07962     11.42957     16.39918        -1.149595     -0.178992      0.403721
Pb      15.47071     11.90317      4.03425         0.251386     -0.511892     -0.286205
Pb       0.03532     11.57319      0.17557         0.847479     -0.740258     -0.586571
Pb       4.06742     11.50660      8.04525        -1.542091      0.262681      0.294199
Pb       0.12416     11.78237      8.76393         0.323681     -0.610697     -0.824674
Pb       3.92013     11.42064     12.35456        -1.206985      0.837080     -0.305623
Pb       0.04669     11.67302     12.66828         0.768452     -0.825266     -0.214395
Pb       7.54068      3.75993      4.32593         0.561723      1.365730     -0.295822
Pb       7.72535      4.17380      0.21067         0.886567     -1.701819      0.142312
Pb       7.47077     15.50008      4.36947         0.714373     -0.046526     -0.987033
Pb       7.79800     15.50682      0.17072        -0.406348      1.202248      0.669886
Pb       8.06413      3.77869      8.56071        -0.573752      0.671304     -0.782404
Pb       7.73071      0.00599      8.24185         0.889748     -0.764060      0.359465
Pb       7.66424      3.71642     12.61962         0.389271      1.068384     -0.714632
Pb       7.84722      0.15952     12.32931        -1.095610     -0.445337     -0.927649
Pb       7.99402      7.83443      4.28005        -0.405541     -1.486502     -0.268505
Pb       7.79697      7.54636     16.60312        -0.236263      0.848748     -0.033108
Pb       7.67932      7.72253      8.17564         0.307196     -1.789696     -0.214809
Pb       7.96903      7.68041     12.20705        -0.486934     -0.680775     -0.696624
Pb       7.98977     11.52238      4.27870        -0.834552      1.528146      0.497033
Pb       7.96225     11.73368      0.05471        -0.620656     -0.780702      0.090548
Pb       8.32619     11.66645      8.42836        -2.415936      1.297317     -0.524445
Pb       7.33659     11.34716     12.32841         0.359424      0.820182     -0.449818
Pb      11.52051      3.77400      4.40077         0.088979      1.151890     -0.379472
Pb      11.52196      3.85513      0.13221        -0.631479      0.141957      0.218713
Pb      11.61182      0.17805      4.14456        -1.041108     -0.255789     -0.069658
Pb      11.41137     15.59229     16.52404        -0.461257      1.152962      0.776070
Pb      11.63235      3.47771      8.31640         1.169046      1.921572     -0.243556
Pb      11.79881     15.31888      8.60430        -0.243620      1.403887      0.141042
Pb      11.68083      4.14220     12.42686        -0.279583     -0.225234     -1.055989
Pb      11.88123      0.01720     13.00291        -0.601721      0.151603     -1.168157
Pb      11.84155      8.05852      4.01554        -0.913712     -0.335331      1.339364
Pb      11.33175      7.98041     16.61691         0.383037      0.137444     -0.316521
Pb      11.49758      7.77484      8.11331         1.364700     -0.370257      0.317991
Pb      11.63891      7.98060     12.49429        -0.060967     -0.146703     -0.720919
Pb      11.65034     12.17188      4.31329         0.031996     -0.591583     -0.705250
Pb      11.49564     11.92508      0.15667         0.160970     -2.046530     -0.098383
Pb      11.90570     12.11682      8.63642         0.420320     -0.986699     -0.480037
Pb      12.16575     12.07025     12.83861        -2.464394     -2.656703     -1.948774
Ti       1.66471      1.95497      2.18293         2.457033     -0.865340     -1.118527
Ti       1.97283      1.84236     14.57099         0.594400     -0.313608      0.909214
Ti       2.04689     13.44968      1.92254        -0.954030      2.382822     -1.345344
Ti       1.89502     13.63803     14.60481        -0.171150     -0.176613      3.133491
Ti      13.36945      2.09443      2.12187         0.524199      0.180667      1.369915
Ti      13.66882      2.11919     14.62664        -0.366320     -0.903106      0.178494
Ti      13.55371     13.80390      1.97921         0.544100     -2.294974      2.254767
Ti      13.56546     13.59923     14.94986         1.831797      0.133671     -2.484997
Ti       1.96235      1.89015      6.56021        -0.051676      1.439849     -0.379845
Ti       1.79212     13.73148      6.48015         1.873603     -3.236719     -2.414516
Ti      13.84321      1.95799      5.93345        -0.209818      0.523944      4.547359
Ti      13.64915     13.77175      6.24558        -0.119676      0.521257      0.146072
Ti       2.07073      1.89589     10.76625        -1.269643      0.765310      0.093783
Ti       2.21411     13.69468     10.42685        -0.693576     -1.008789      2.213340
Ti      13.58894      2.16193     10.46738         1.487036     -1.663798      0.958579
Ti      13.93367     13.78787     10.72401        -0.346196      0.423249     -1.074104
Ti       1.84418      5.76020      1.97448        -0.054043      0.491553      1.756142
Ti       1.94134      5.70230     14.50346         0.235976      1.523427     -0.955633
Ti      13.49737      6.07182      2.03822         0.539579     -2.849616      1.743125
Ti      13.51101      5.82657     14.61144         0.109738      1.090763      1.596866
Ti       1.78361      5.71011      6.16209         1.296068      2.026491     -0.050595
Ti      13.63502      5.86717      6.35600        -1.326444     -0.664708     -1.635299
Ti       1.94889      5.81718     10.62871         0.186657     -0.149336     -1.560326
Ti      13.59754      5.88740     10.11305        -1.216736      0.612556      1.027150
Ti       1.77515      9.62805      2.12264         1.332238     -0.379018     -0.232978
Ti       1.97518      9.46105     14.59786        -1.248131      1.955922      0.811770
Ti      13.48816      9.81609      2.05899         1.497326      2.304329     -1.143523
Ti      13.59427      9.84773     14.71465         1.129051     -1.426140      0.124047
Ti       1.76866      9.69768      6.21115         0.080964      0.222541      0.104821
Ti      13.52648      9.94539      6.33169         2.538375     -1.600706      1.158709
Ti       1.87719      9.60787     10.39337         1.778037      1.137315     -0.504169
Ti      13.50503      9.78270     10.31936         1.227290      0.111483      0.323908
Ti       5.70445      2.07215      2.04397        -0.540753     -1.542452      0.829349
Ti       6.09920      1.76190     14.77206        -0.332004      2.544774     -0.093955
Ti       5.81385     13.46116      2.10762         1.082744      2.529794      1.065285
Ti       5.81043     13.60702     14.59629        -0.786713     -0.583624     -1.151643
Ti       5.91887      1.98996      6.32813        -0.549127      0.758000     -0.361231
Ti       5.73933     13.60723      6.24503         0.103687     -2.170692     -0.338077
Ti       5.81861      2.05984     10.16579        -0.410371     -2.143667      0.828023
Ti       5.91115     13.82054     10.34286         0.940530     -0.702121     -0.067650
Ti       5.81808      5.86227      2.06350         1.203115      0.150468      3.272323
Ti       5.92044      5.62607     14.42270         0.240874      2.039925     -0.522312
Ti       5.87703      5.75617      6.13781         0.902773      1.857119     -1.055748
Ti       5.93324      5.58900     10.42065         1.419391      2.843541     -1.633861
Ti       5.97912      9.62108      2.15672        -1.285003      0.272231     -0.649880
Ti       5.76989      9.56836     14.43937        -0.020831     -1.111829     -0.001161
Ti       5.79412      9.55836      6.14539        -0.387035      0.281304     -0.233039
Ti       5.90361      9.67549      9.96352        -1.442211     -0.472049      4.088673
Ti       9.47398      2.27828      2.42200        -0.014974     -0.802353     -1.551708
Ti       9.80527      2.14561     14.30877        -0.977726      0.375167      3.706835
Ti       9.58142     13.90149      2.15050         0.010069      0.304594      2.157989
Ti       9.41771     13.66110     14.38135         2.258202     -0.920779      0.856666
Ti       9.81425      1.91331      6.56074        -1.787824     -0.951349     -1.508944
Ti       9.73766     13.58800      6.48323        -1.363611      1.713462     -1.955103
Ti       9.82243      1.86973     10.52928        -0.034643     -0.696554     -1.130085
Ti       9.77824     13.51557     10.72719        -0.379554      2.477005     -0.889590
Ti       9.87038      6.04080      2.15407        -3.232706     -0.399568      2.525741
Ti       9.79845      5.87751     14.43899        -0.632058      0.640388      0.046999
Ti       9.85784      5.73865      6.13665        -1.924187      0.572584      0.668053
Ti       9.85439      5.82881     10.14220        -1.426979     -0.612255      0.854320
Ti       9.61891      9.93463      2.32730         2.519711     -0.830724     -0.343194
Ti       9.54591      9.79246     14.46701         0.886808     -0.285095     -0.628335
Ti       9.72251      9.67116      6.38341         0.554404     -0.948477     -1.494965
Ti       9.81603      9.81681     10.35436         0.217903     -0.643576      0.757370
O       2.19926      1.90757      0.35671        -1.050541      0.413069     -1.146510
O       2.07260      1.88527     12.73607        -0.434293     -0.564003     -0.994606
O       1.80387     13.57839      0.09101         0.697508      0.273091      1.863293
O       1.99854     13.92330     12.90199        -0.403842      0.517427     -3.606012
O      13.49854      2.06549      0.39113        -0.143488     -0.369254     -1.976779
O      13.83267      2.31867     12.88462        -0.500129     -1.220746     -0.553830
O      13.17159     13.58102      0.03888         0.605496      0.720324      3.016711
O      13.91526     13.36589     12.62928         0.219724      1.711997     -0.618590
O       1.77865      1.91906      4.25016         0.536722     -0.842448      0.630326
O       1.84839     13.57583      4.49760        -0.872816      1.110434      1.038118
O      13.79048      1.70472      4.24156        -0.534165      0.043974     -1.742602
O      13.64013     13.65128      4.31863         0.553868      0.630688      1.459775
O       1.87490      2.01925      8.48776         0.021474     -0.101382      0.125620
O       2.19417     13.81723      8.69131        -0.374652      0.039360     -0.944965
O      13.78850      2.09876      8.73151        -0.699866      0.126079     -0.263508
O      13.50496     13.83641      8.54919         0.262136     -0.983898      0.611214
O       1.96034      5.75338      0.08562        -0.570432     -0.422229      0.577702
O       2.10173      5.72545     12.66461         0.183858     -0.019950     -0.084194
O      13.61582      5.84098      0.28681         1.259719      0.163845     -0.651551
O      13.08979      5.90287     12.90567         0.911802      0.272949      0.295243
O       2.01786      6.03799      4.35201        -1.329709     -1.174529      0.630440
O      13.58268      6.00896      4.35467        -0.391756      0.203472      0.598291
O       2.01998      5.58876      8.82524        -0.188517      0.429133     -0.169976
O      13.61919      5.86882      8.34411         0.039068     -0.444888      1.232299
O       1.96888      9.86743      0.05751        -0.084467     -0.075924      0.985072
O       2.09380      9.63140     12.79487        -0.362817      0.074787     -0.572020
O      13.65135     10.00129      0.14417        -0.622425     -0.864659      0.709976
O      14.04629      9.87990     12.72411        -1.391870     -0.011468      0.839414
O       1.50497      9.54014      4.33855         0.838466      1.000276      1.571742
O      13.65810      9.64734      4.58869         0.119580      0.036823     -2.138739
O       2.05430      9.78186      8.56774        -0.596203     -0.727026      1.130784
O      13.75198      9.70159      8.53564        -0.549108      0.233840      1.180523
O       5.79505      2.12391      0.23813        -0.599733     -0.250210     -1.444698
O       6.12868      2.00652     12.92249        -0.450905     -1.257785     -0.552513
O       5.86330     13.66226      0.33911         0.268460     -0.584596     -1.705831
O       6.24152     14.01689     12.78327        -1.314302     -0.802913      1.261434
O       5.95033      2.08078      4.49813        -0.678298     -0.176599      0.197852
O       5.78874     13.40016      4.44092        -0.017190      1.155786      0.637780
O       5.82774      2.11820      8.42509        -0.002428     -0.304961     -0.163057
O       5.97094     13.85770      8.57818        -1.139274     -0.741441     -0.274202
O       5.66695      5.99962      0.27322         0.507199     -0.738538     -1.429812
O       5.92830      5.35688     12.50766        -0.603101      1.349246      1.410102
O       5.80006      5.74425      4.26175        -0.739595     -0.062065      0.496351
O       6.03573      5.93241      8.46109        -0.050237     -0.175501      0.622041
O       5.94808      9.72554      0.29383        -0.261316      0.603313      0.126894
O       5.49266      9.83089     12.59114         2.276299     -1.449054      1.689983
O       6.00412      9.86696      4.39872        -0.640566      0.058539     -1.202998
O       5.92708      9.57000      8.22690        -0.248379     -0.170912      0.321701
O       9.69731      2.36737      0.35654         0.120038     -0.333386      0.274981
O       9.79641      1.86826     12.58565        -0.497063      0.041654     -1.164183
O       9.92731     13.49356      0.29932        -1.305861      2.161005      0.234963
O       9.42480     13.35987     12.62717         0.298618      1.004417      0.759139
O       9.59627      1.84661      4.29823        -0.147711      0.281977      0.740311
O       9.50867     13.70781      4.56544         1.233115     -0.103997     -0.071628
O       9.77253      2.15688      8.50194         0.639110     -1.621561     -1.218004
O       9.71874     13.50326      8.41682         1.835034     -0.149448      0.458348
O       9.54520      5.74387      0.40512        -0.223638      0.898733     -1.808596
O      10.10558      6.04859     12.66990        -0.140152     -0.433683      0.973337
O       9.97060      6.07286      4.40465         0.417031     -0.770422     -1.125965
O       9.73647      5.96307      8.36415        -0.681750     -0.209153      0.212134
O       9.58096      9.41714      0.55200        -0.181555      1.340679     -1.809741
O       9.67193      9.72338     12.67759        -0.430141      0.266677      1.008236
O       9.79229      9.77870      4.27701         0.434773      0.058797      2.474577
O       9.87227      9.94890      8.51198        -0.105812     -1.592093      0.599336
O       3.80185      1.98425      2.35387         1.077025      0.311403      0.749439
O       3.80037      1.82522     14.69032         2.309981      0.609588      0.539269
O       3.92847     13.35011      2.36053        -1.093290      0.643720     -0.295998
O       3.84270     13.76139     14.70066         3.143948      0.770979      0.209632
O      15.52463      2.15616      2.14173        -1.864252     -1.245676      0.033003
O      15.50001      1.59493     14.88663         0.343579      1.432548      0.322005
O      15.48826     13.67723      2.07590        -0.867410      0.232536      0.196316
O      15.45696     13.81085     14.75986        -0.159142     -0.032983      0.463710
O       3.90710      2.28761      6.53460        -0.351380     -1.017304     -0.405677
O       3.78760     13.66477      6.37179         1.710351      0.937588      1.057167
O       0.12564      2.06850      6.34319        -1.742266     -0.719972      0.053913
O      15.54548     13.77677      6.69220        -0.524946      0.004679     -0.350720
O       3.87076      2.22970     10.37764         1.001900     -0.749070      0.766673
O       4.06452     13.82751     10.82300        -1.114013      0.173730     -0.012432
O       0.02892      2.04088     10.64030        -0.388732      0.299790     -0.062886
O       0.15203     13.66998     10.47448        -0.556014      0.145012      0.039142
O       3.71248      5.78673      2.46164         0.293693     -0.053630     -1.710123
O       3.88512      5.79850     14.79843         0.523580     -1.054598     -0.602272
O      15.58427      5.62798      2.53158         0.085733      1.199504     -1.529514
O      15.55867      5.55333     14.40886        -0.298008      0.720361      1.373087
O       3.88368      5.90998      6.42122        -0.604482     -0.679385      0.588702
O      15.55269      5.77884      6.34167        -0.320448     -0.248746      0.001508
O       4.15915      5.69539     10.39732        -2.406550     -0.069997      1.307390
O      15.40815      5.80464     10.38677         1.637172      0.121685      1.239222
O       3.71819      9.67789      2.34168         1.103414      1.460114      0.109420
O       3.94600      9.76791     14.64927        -1.071349     -0.790963      1.425487
O      15.44867      9.60093      2.05314         0.201019      0.861139      0.026849
O      15.59734      9.97582     14.87021         0.850054     -0.587827     -0.302854
O       3.89496      9.61461      6.37153        -1.225595      0.351425      0.386296
O       0.01454      9.85758      6.77322         0.745519     -0.225612     -0.836138
O       4.00930      9.81123     10.54160        -0.259213     -1.857639     -0.395648
O       0.11964      9.45973     10.68794        -0.733300      0.749087     -0.632733
O       7.57962      2.11448      2.22137         1.270363     -0.207752      0.464419
O       7.90205      1.83032     15.03634         1.160127     -0.379021     -0.941741
O       7.64816     13.87765      2.65794         1.428089     -0.042520     -1.800266
O       7.71653     13.60680     14.98557         0.766231      0.053299      0.059693
O       7.75675      1.98007      6.64506        -0.112108     -0.545050     -0.343772
O       7.79527     13.58464      6.65924        -0.436062      0.323412     -0.494422
O       7.97102      2.00702     10.35348        -1.559082     -0.594119      0.956527
O       8.01257     13.74258     10.41228        -3.248359      0.084148      0.539863
O       7.75628      6.14974      2.50222        -1.106823     -0.531739     -1.446897
O       7.87434      5.85187     14.46190        -0.663478      0.698529      0.615670
O       7.85011      6.15824      6.02936        -0.290301     -0.279038      1.443286
O       7.96286      5.77487     10.71597        -0.182306      0.210761     -0.014138
O       7.89368      9.81031      2.58555        -3.241052     -0.418083     -0.895443
O       7.58672      9.81404     14.77880         2.471437      0.238419     -0.486206
O       7.76773      9.36749      6.45844         1.851927      0.926962     -0.151663
O       7.78714      9.71946     10.62926         0.275311      0.577594     -0.569131
O      11.43472      1.97008      2.44732         2.650111      0.185420     -0.069193
O      11.62633      2.02579     14.57336         0.692434      0.023526      0.478410
O      11.63711     13.91960      2.50552        -0.723647     -0.758871     -0.488356
O      11.78103     13.55914     14.46195        -2.006918      1.007102     -0.056358
O      11.56591      2.28030      6.26186         1.340130     -1.831058      0.007386
O      11.73182     13.54902      6.28706        -0.552127      0.610137      0.944221
O      11.69714      1.80620     10.67557         1.730942      0.845227     -0.161850
O      11.66055     13.66418     10.76733         1.595143     -0.160735     -0.407326
O      11.60974      5.64994      2.00412         2.549493      0.716148      0.482911
O      11.54430      5.72224     15.20188         1.455561      0.736769     -1.141336
O      11.60354      5.69667      6.57073         2.366983      0.168219      0.126560
O      11.63847      5.87112     10.45951         2.520855     -0.131374      0.120615
O      11.68310      9.94081      2.26643        -0.604800     -0.442969      0.116224
O      11.72665      9.66171     14.67204        -1.312310     -0.331692      0.218642
O      11.83344      9.63579      6.65744        -3.190263     -0.215068     -0.254115
O      11.63496     10.01579     10.72086         0.595823     -0.754951     -0.456927
O       1.89212      3.76436      2.22568         0.369824      3.029353      0.026810
O       1.97993      3.83399     14.50386        -0.412420     -0.561929      1.564387
O       1.89226     15.39420      2.30436        -0.081988      0.803418      0.372422
O       2.02810      0.07602     14.97102        -0.796628     -0.836075     -0.295179
O      13.57409      3.87261      2.67925        -1.209773     -0.295152     -1.284209
O      13.64475      3.88779     14.97174        -0.066089      1.099457      0.109429
O      13.67162     15.54098      2.15849        -0.261906      2.254640     -0.130593
O      13.46505     15.54586     14.66234        -0.007512      0.705035      0.472692
O       1.85769      3.99147      6.48290         0.667486     -2.220835      0.332220
O       2.09557      0.03756      6.75714        -0.714677      0.238261     -1.034687
O      13.44409      3.90312      6.25114         1.432170     -1.336707     -0.567838
O      13.46859      0.17470      6.50271         0.231367     -0.718954     -0.609389
O       1.83981      3.80621     10.82948         0.145224      1.209752     -0.026041
O       1.75135      0.02725     10.80536         1.306646     -0.375096     -0.812817
O      13.56350      4.06431     10.94557        -0.302561     -0.310998     -1.402527
O      13.77053      0.02705     10.73012         0.011935     -0.702791      0.360472
O       1.88064      7.85170      2.09819        -0.378174     -2.184313     -0.489199
O       1.89122      7.66764     14.74630        -0.264730     -0.276014      0.331331
O      13.48143      7.88920      2.18669        -0.131069     -0.624871     -0.195531
O      13.95613      7.84627     14.89641        -1.355407     -1.420171     -0.763933
O       1.78020      7.64196      6.71188         0.100969      1.531519     -0.352516
O      13.84729      7.71830      6.59193        -0.445904      0.428946     -0.209343
O       2.01826      7.68582     10.86555         0.399892     -0.218237     -0.899125
O      13.65002      7.94182     10.79760        -0.776511     -1.536290     -0.498487
O       1.59771     11.79753      2.28964         0.072427     -2.554711      0.321132
O       1.96184     11.91363     14.76113         0.044964     -2.350997     -0.329122
O      13.59478     11.77675      2.37654         0.061494     -0.146252     -0.306178
O      13.39324     11.66379     14.70934         1.229345      1.750956      0.711843
O       2.10236     11.85753      6.74862        -1.114022     -0.839027     -0.511695
O      13.44411     11.71786      6.40399         0.914378      2.718300      0.224716
O       1.96436     11.66217     10.73880        -0.170046      0.888134     -0.507352
O      14.07843     11.61498     10.48903        -1.091437      0.601254      0.178880
O       5.92565      4.07094      2.20070        -0.510790     -1.623022     -0.157578
O       6.29161      3.86501     14.63206        -1.493374     -0.467167      1.280805
O       5.74040      0.08741      2.30600        -0.222149     -0.033218      0.141707
O       6.07196      0.00247     15.12434        -1.179722     -1.705442     -0.584542
O       6.07322      4.07325      6.49956        -0.246555     -3.405608      0.155485
O       5.69770     15.59638      6.38872         0.596195      0.812305      0.190478
O       6.19159      3.77831     10.58074        -0.451925      0.066318     -0.128562
O       5.96357      0.10513     10.37915         0.239591      0.687737      1.164718
O       5.79427      7.86409      2.10732        -0.165031     -0.167372      0.903397
O       5.89993      7.54220     14.65868        -0.486849      2.326262     -0.274782
O       5.62885      7.68403      6.02116         0.656060      1.876739      1.515557
O       6.02489      7.73981     10.58548        -0.473198      0.953109     -0.112556
O       6.12232     11.73860      2.41437        -0.633107     -1.957207     -0.525030
O       5.63156     11.63060     14.61830         1.090054      1.822090      0.084476
O       5.69066     11.66280      6.54584         0.796038      0.394258     -0.660247
O       5.58687     11.66208     10.71133         2.512125      0.874326     -0.937664
O       9.50704      4.13784      2.51483         0.189834     -1.233041      0.281982
O       9.57595      4.04221     14.56533         0.800959     -2.763567     -0.256558
O       9.58610      0.17616      2.16370         0.013263     -1.835493     -0.326622
O      10.05353     15.57698     14.64577        -1.542531     -0.953302     -0.310483
O       9.60893      3.82323      6.38827        -0.379053      0.972782     -0.122365
O       9.74578     15.59237      6.56488         0.356489      0.159656      0.371752
O       9.89054      3.86147     10.22889         0.302837      0.624505      1.288622
O       9.78367     15.60359     10.27917         0.011719      0.221138      0.886550
O       9.70601      7.86674      2.53591         1.456091     -0.111458     -0.875367
O       9.71345      7.84751     14.85241        -0.111125      0.844298     -0.034261
O      10.05890      7.71278      6.45681        -1.302432      2.192232     -0.235732
O       9.83432      7.68819     10.74366        -0.106098      2.966271     -0.791935
O       9.46984     11.92411      2.39705         0.756841     -0.810407     -0.721829
O       9.74200     11.78366     14.95162        -0.444679     -0.890476     -0.467305
O       9.69694     11.47698      6.42398         0.043443      1.654210      0.072403
O       9.71187     11.77295     10.49060        -0.199269     -2.949780     -0.209202
