  # total energy = -7881.58951707 
CRSYTAL
PRIMVEC
    15.464    0.0000000000000000    0.0000000000000000
     0.0000000000000000   15.464    0.0000000000000000
     0.0000000000000000    0.0000000000000000   17.350608
PRESSURE
-0.67878 -0.540837 -0.171727 -0.272596 -0.064294 0.030581
PRIMCOORD
320 1
Pb       3.84896      3.58152      4.25782        -0.367666      0.690615     -0.222169
Pb       3.77159      3.72716     17.26755         0.099608      0.004737      0.114735
Pb       4.02087     15.36428      4.29663        -0.936321      0.013870     -0.176888
Pb       3.80300      0.06041      0.05132         0.079771     -0.354312     -0.338862
Pb      15.17339      3.82606      4.20914         1.054550      0.075336      0.702305
Pb      15.42271      3.89854     17.30128        -0.220918     -0.177077      0.086580
Pb      15.31129     15.44175      4.23597         0.893916      0.097761      0.574786
Pb      15.36244      0.04369     17.33599         0.149617     -0.058047     -0.564646
Pb       3.90435      3.78430      8.63775        -0.593675      0.216482     -0.249476
Pb       3.91812      0.05049      8.52959        -0.189971     -0.177248      0.421912
Pb       0.04682      4.03491      8.63166         0.301200     -0.674541     -0.026908
Pb       0.08636      0.08141      8.70182         0.194222      0.327489     -0.062996
Pb       3.89876      3.97423     13.05302        -0.690234     -0.508489     -0.107840
Pb       3.78438      0.18639     12.92803        -0.218590     -0.749810      0.522544
Pb      15.31246      3.84693     13.03182         0.536192      0.037487     -0.557014
Pb      15.40879     15.31602     12.98251         0.059776      0.511813      0.233603
Pb       4.05661      7.65360      4.29186        -0.537898     -0.100978     -0.708679
Pb       4.03005      7.86341     17.23410        -0.482620     -0.540985      0.515770
Pb       0.11325      7.76391      4.36512         0.018691     -0.140162     -0.379350
Pb       0.06131      7.76430     17.32191         0.176665     -0.267128      0.291110
Pb       3.64768      7.53231      8.63654         0.814590      0.611129      0.482630
Pb      15.23295      7.79850      8.67708         0.603540      0.524033      0.043904
Pb       3.86441      7.79358     12.92152        -0.290817     -0.004549      0.826738
Pb      15.40747      7.50109     12.95107        -0.024292      0.264372     -0.124175
Pb       4.02213     11.46875      4.36425        -0.385149      0.020107     -0.518540
Pb       3.94173     11.57114     17.29016        -0.173291      0.384300      0.113215
Pb       0.00816     11.66537      4.28712         0.210265     -0.342976      0.493564
Pb      15.39218     11.60995      0.04303         0.168297     -0.169686     -0.536786
Pb       3.96452     11.48938      8.84627        -0.232458     -0.128387     -0.934616
Pb       0.12273     11.72920      8.62040        -0.408279     -0.753801      0.274675
Pb       3.85825     11.61399     12.90131         0.090258      0.125395      0.547280
Pb       0.00269     11.25619     13.13486        -0.289452      0.717814     -0.389304
Pb       7.82029      3.79112      4.27501        -0.480507      0.135929      0.169996
Pb       7.66435      3.70598     17.26289         0.422441      0.846226      0.653228
Pb       7.69719     15.44900      4.28609        -0.005712      0.049571     -0.003903
Pb       7.71010      0.05776     17.30882         0.063716     -0.703876      0.008200
Pb       7.74732      3.81480      8.51711        -0.619099      0.062801      0.289419
Pb       7.83082     15.26288      8.60652        -0.708894      0.323674     -0.046030
Pb       7.76702      4.00491     13.04359        -0.277729     -0.201647     -0.373387
Pb       7.58246      0.05079     12.92076         0.368738     -0.480569      0.483955
Pb       7.82119      7.67224      4.28631        -0.588855     -0.200787     -0.218425
Pb       7.75860      7.85305     17.29277        -0.503407     -0.621384     -0.124767
Pb       7.66277      7.69275      8.64084        -0.007975     -0.315054     -0.136308
Pb       7.88708      7.79735     12.96558        -0.278163     -0.549368      0.122329
Pb       7.75324     11.59619      4.41484         0.067198     -0.087052     -0.516561
Pb       7.71813     11.73064     17.30422         0.099752      0.077072     -0.619891
Pb       7.93949     11.50310      8.63241        -0.594633      0.030775     -0.118948
Pb       7.65619     11.63510     12.85616        -0.113776     -0.119079      0.864052
Pb      11.56569      3.83515      4.28924        -0.451783      0.154669     -0.074335
Pb      11.49507      3.73328     17.18242         0.302288      0.106100      0.845651
Pb      11.51692      0.04717      4.36538         0.401393     -0.073554     -0.505840
Pb      11.58177     15.32780     17.23636        -0.173576      0.247692      0.064541
Pb      11.41625      3.84592      8.61991         0.271379      0.175065     -0.389644
Pb      11.65588      0.01881      8.55617        -0.103490      0.284430      0.793580
Pb      11.45729      3.88978     12.87807         0.158476      0.078894      0.447246
Pb      11.38970      0.06362     12.94833         1.047327     -0.453657      0.801448
Pb      11.42732      7.70788      4.28388         0.787666     -0.099889     -0.303181
Pb      11.42186      7.62539      0.04063         0.158937      0.091645      0.193290
Pb      11.44980      7.71480      8.56218         0.156179     -0.005250     -0.193974
Pb      11.59915      7.53216     12.91526         0.039193      0.448453      0.336689
Pb      11.55209     11.77695      4.31567         0.405478     -0.365160     -0.539050
Pb      11.61778     11.62655      0.02904        -0.135916      0.308382     -0.414702
Pb      11.78424     11.73924      8.73695        -0.006874     -0.264498     -0.289021
Pb      11.48128     11.51338     12.98949         0.444425     -0.000959      0.476159
Ti       1.78842      1.90229      2.25999         1.197444     -0.930531      1.168586
Ti       1.81177      1.88319     15.30612         0.542855     -0.394719      0.051183
Ti       2.05101     13.49439      2.37708        -0.178944     -0.491565      0.630069
Ti       1.87395     13.48161     15.43600         0.862142      0.880066      1.055036
Ti      13.42953      1.91221      2.26939        -0.530219     -0.624379     -2.103186
Ti      13.46141      1.91099     15.25175         0.191982     -0.644313      0.217322
Ti      13.61708     13.55640      2.31617        -1.623298     -0.230477      0.664818
Ti      13.55294     13.48108     15.21543        -0.456824     -0.452042      1.621738
Ti       1.85886      1.93342      6.53944        -0.235634      0.297901      0.709448
Ti       1.99463     13.54825      6.67840         0.358698      0.315070      0.658136
Ti      13.47798      2.07077      6.73118         0.576869     -0.517253      0.190459
Ti      13.62350     13.67229      6.76466         0.355017     -1.219565     -1.624941
Ti       1.84021      1.94134     11.05991         0.114512      0.485454     -0.167757
Ti       1.86104     13.50020     11.01260        -0.148791      0.626513      1.526039
Ti      13.43672      1.96900     11.01707         1.227146     -0.928148      0.852959
Ti      13.48817     13.54493     11.10183         0.890807     -0.330096      0.943881
Ti       1.93882      5.72723      2.32070         0.202789      0.109745     -0.037393
Ti       1.89363      5.75315     15.40497        -0.291379      0.514642      0.271478
Ti      13.46359      5.79911      2.24579        -0.047117     -0.002570      0.654316
Ti      13.43146      5.78864     15.47366         0.485865     -0.342152     -0.744282
Ti       1.93837      5.84445      6.57637        -0.113720     -0.890561     -0.602084
Ti      13.46822      5.83357      6.64954        -0.596407     -0.234483     -0.629539
Ti       1.93085      5.80415     11.05001        -0.740415     -0.625515      0.624953
Ti      13.38236      5.76597     10.85211         1.538681      0.840325      0.724042
Ti       1.94494      9.68094      2.34123         1.037337     -0.464634     -0.464452
Ti       1.92336      9.67015     15.39604         0.324146     -1.310598     -0.594040
Ti      13.59373      9.66156      2.33312        -0.711320     -0.158842      0.923158
Ti      13.38466      9.48981     15.36705         0.694244      0.957371      0.813361
Ti       1.87876      9.69648      6.72302        -0.184309      0.135702      0.642170
Ti      13.39724      9.69351      6.57815         1.352736      0.593342      0.062834
Ti       1.83874      9.70130     11.08682         0.609423     -0.912929     -1.694014
Ti      13.46105      9.70382     10.97304         0.872562     -1.271903      0.915403
Ti       5.80472      1.92582      2.25858        -0.880024     -0.776580     -1.067223
Ti       5.83842      1.91449     15.30807        -0.995230     -0.438860      0.739377
Ti       5.87791     13.49689      2.30075        -1.005763     -0.045318     -2.133424
Ti       5.73201     13.62213     15.34985         0.109447     -0.106557      0.830467
Ti       5.76430      1.89905      6.57904        -0.116128      0.012660     -0.096704
Ti       5.86094     13.40345      6.72282        -0.656942      0.237413      1.591396
Ti       5.75726      1.99696     10.99148         0.100546     -0.318137      0.362059
Ti       5.75964     13.58884     10.95013        -0.136937     -0.284109     -0.774915
Ti       5.77548      5.65787      2.18976         0.095382      0.608868      1.117365
Ti       5.68754      5.73614     15.33015         1.211394      1.041088     -0.470879
Ti       5.78050      5.73719      6.53399        -0.545475     -0.356764      1.255860
Ti       5.73421      5.77399     11.05448         0.221371     -0.315788     -0.398344
Ti       5.94001      9.61063      2.28828        -1.302921     -0.126231     -0.106928
Ti       5.81921      9.72524     15.15631        -0.532525     -0.508999      0.630330
Ti       5.77389      9.53901      6.71758        -0.298110      0.628253     -0.703206
Ti       5.80165      9.57436     11.05150        -0.387340      0.577404      0.558676
Ti       9.62915      1.84424      2.22579        -0.170514      0.855926     -0.091189
Ti       9.64632      1.88055     15.24583         0.383900     -0.374113      1.545846
Ti       9.65991     13.57792      2.31629         0.688742     -0.672337      0.578062
Ti       9.65613     13.50235     15.20212        -0.067327      0.141824      2.078978
Ti       9.57543      1.84489      6.65546         0.309746      1.022168     -0.301129
Ti       9.78411     13.51712      6.55234        -0.934085     -0.040544      0.001942
Ti       9.65794      1.86854     10.90830        -0.901914      0.252657      0.569439
Ti       9.66711     13.40100     11.02995         0.088252      0.576575      0.649541
Ti       9.58169      5.75052      2.26225         0.018048     -0.911683     -0.668948
Ti       9.56168      5.77612     15.37683         0.070068      0.112877     -0.057411
Ti       9.57721      5.72589      6.58114         0.572864      0.470060     -0.407012
Ti       9.57501      5.74912     10.78085        -0.326169      0.336324     -0.416858
Ti       9.69396      9.69791      2.31967         0.233139      0.562845      0.439277
Ti       9.66089      9.65939     15.32816        -0.606984      0.129031      0.375129
Ti       9.68485      9.66622      6.58379        -0.448470     -0.272577      0.377700
Ti       9.69092      9.60455     10.95702        -0.010455     -0.531640     -0.869809
O       1.91019      1.79719      0.51375        -0.452591      0.392449     -0.380365
O       1.92102      1.87410     13.54294        -0.418203      0.041729      0.106573
O       2.03774     13.45736      0.65071        -0.249761     -0.372033     -1.304565
O       1.91522     13.64286     13.75483        -0.173565     -0.439540     -1.605280
O      13.36404      1.87116      0.45397         0.429569      0.040168      1.381123
O      13.54171      1.73003     13.50155        -0.413255      0.826869      0.061884
O      13.35432     13.37199      0.59842         0.809514      0.234363     -0.261086
O      13.71408     13.41270     13.50663        -0.526533      0.155179     -1.109345
O       1.87992      1.92432      4.80063         0.176172     -0.014869     -0.453698
O       2.00308     13.60985      4.97707         0.011813     -0.487936     -1.167331
O      13.39373      1.91590      4.97948         0.178138      0.214849     -0.187604
O      13.57424     13.76354      4.96379        -0.112937     -0.332561      0.845584
O       1.91455      1.86289      9.28625        -0.270646      0.184577      0.719564
O       1.79794     13.54622      9.30612         0.311994     -0.104164     -1.410943
O      13.52609      1.93198      9.29212        -0.403946      0.011698     -0.679765
O      13.56675     13.45674      9.37356        -0.425507      0.186038     -1.837777
O       1.96485      5.53848      0.54488        -0.319730      0.541449      0.868423
O       1.79578      5.70405     13.66241         0.132098      0.100593     -0.469987
O      13.52535      5.58936      0.52550        -0.057562      0.289683     -0.037668
O      13.34930      5.94293     13.67818         0.411571     -0.410327      0.262690
O       1.96956      5.91558      4.79564        -0.244383     -0.091223      1.135939
O      13.36365      5.73255      4.86230         0.190052      0.023613      0.581351
O       2.02264      5.69547      9.31780        -0.224880      0.286123     -1.135376
O      13.56189      5.90995      9.12903        -0.503342     -0.451862     -0.845375
O       1.94648      9.74772      0.55644        -0.063105     -0.077783      0.180116
O       1.96680      9.50641     13.60641        -0.381498      0.872100      0.550917
O      13.67535      9.76049      0.59887        -0.159097      0.239081     -0.204822
O      13.30906      9.36125     13.63500         0.570559      0.323308      0.010872
O       1.77004      9.63470      4.98785         0.600049     -0.273730     -0.315134
O      13.35874      9.65554      4.82421         0.278527     -0.026851      0.339648
O       1.81004      9.71306      9.25239         0.278215     -0.004302      1.237061
O      13.46396      9.49736      9.25554        -0.089353      0.506659     -0.877215
O       5.75247      1.90960      0.43779         0.331102      0.015230      0.918541
O       5.92357      1.79621     13.54851        -0.293775      0.248522      0.227412
O       5.77049     13.65627      0.42208         0.578090     -0.846825      2.331518
O       5.78697     13.72093     13.60660        -0.048493     -0.211165     -0.409564
O       5.67203      1.95191      4.78764         0.329005     -0.542005      0.473982
O       5.73130     13.46140      4.99560         0.211736     -0.077537     -0.684154
O       5.84335      2.02823      9.24733        -0.209842      0.088219      0.022802
O       5.86863     13.55358      9.14324        -0.102721     -0.162490      1.238208
O       5.89527      5.63395      0.46068        -0.498445      0.441006     -0.160535
O       5.77630      5.69686     13.50708         0.078126      0.011435      1.122252
O       5.66509      5.65317      4.83508         0.234171      0.472292     -0.959233
O       5.58740      5.73431      9.30061         0.510083     -0.166500      0.009304
O       5.91406      9.44006      0.49482        -0.150283      0.882843      1.202108
O       5.66251      9.67521     13.37652         0.699174     -0.080567      0.752989
O       5.96736      9.72393      4.89933        -0.691255     -0.496192      1.203267
O       5.63203      9.63268      9.31682         0.639088     -0.161894     -0.288030
O       9.61009      1.82948      0.43326         0.311123      0.147975      1.161187
O       9.73810      2.01523     13.52944        -0.195309     -0.100483     -1.016866
O       9.75242     13.56574      0.57237        -0.476491     -0.332900      0.115894
O       9.70414     13.38006     13.48502        -0.124370      0.039613     -1.435034
O       9.51835      1.93335      4.87822         0.317567     -0.250831      0.505206
O       9.69436     13.60188      4.76893         0.203860     -0.033787      1.388147
O       9.62850      1.94182      9.13638        -0.014455     -0.189768      0.647672
O       9.74060     13.30308      9.28117        -0.322909      0.200260     -0.234243
O       9.64328      5.74126      0.47660        -0.263836      0.243015      0.458987
O       9.61706      5.91960     13.57000         0.101163     -0.618299      0.207483
O       9.61503      5.69056      4.75898        -0.022554      0.133860      0.700741
O       9.53257      5.66706      8.96622         0.212464      0.604259      1.254580
O       9.62923      9.65689      0.56261        -0.346406      0.037773      0.071318
O       9.65572      9.49012     13.57102         0.112347      0.366689      0.279905
O       9.68603      9.70937      4.80984        -0.081125     -0.479844      0.670713
O       9.67313      9.63262      9.14580         0.021713      0.177189      0.799465
O       3.87024      1.81252      2.54801        -0.297305     -0.083346      0.561703
O       3.79503      1.95228     15.61049         0.590882      0.025086      0.144266
O       3.91391     13.45882      2.74867         0.759424     -0.112796      0.304868
O       3.85674     13.50835     15.82601         0.194921      0.081889     -0.361982
O      15.37900      1.83757      2.67428        -0.247609      0.298348     -0.348793
O      15.31610      1.78075     15.69423         0.953800      0.067783      0.226497
O       0.03602     13.48358      2.77223        -0.763723      0.045043     -0.438538
O      15.42871     13.51114     15.81892        -0.213310     -0.233645      0.067871
O       3.79112      1.87439      7.06634         1.331747     -0.095780     -0.534907
O       3.88800     13.53488      7.22977         0.348888      0.387360     -0.564237
O      15.39653      1.99780      7.04752        -0.148911      0.255640      0.066034
O       0.08195     13.53424      7.11167        -0.892640      0.174405     -0.083838
O       3.80077      2.01112     11.43984         1.044555     -0.242857     -0.350391
O       3.79959     13.47763     11.42856         0.981603     -0.011238     -0.553640
O      15.37118      1.92851     11.44659         0.305688     -0.015775     -0.229969
O      15.42386     13.58406     11.41084         0.321994     -0.170871     -0.001094
O       3.84021      5.70797      2.76085        -0.026959      0.127164     -0.618018
O       3.84298      5.64968     15.72597         0.093327     -0.136899     -0.226072
O      15.39508      5.64882      2.78071         0.037162      0.367320     -0.629329
O      15.39351      5.80408     15.87186         0.355420      0.032354     -0.333983
O       3.83812      5.74964      7.01322        -0.328581      0.229166     -0.059533
O      15.38717      5.66091      6.94294         0.443879      0.614033     -0.084926
O       3.84004      5.68422     11.42381         0.279561      0.373156      0.402848
O      15.44054      5.70826     11.27687        -0.427307      0.227250      0.578480
O       3.95253      9.65312      2.77785         0.087193     -0.203289     -0.133481
O       3.92422      9.58559     15.72156        -0.131093      0.890166     -0.101822
O       0.05150      9.60255      2.82380        -1.295391      0.677970     -0.350357
O       0.03440      9.49263     15.76649        -0.835404      0.867452     -0.413263
O       3.86322      9.58645      7.16161         0.191556      0.020871     -0.519163
O      15.40774      9.65281      7.03311        -0.375579      0.015675      0.057179
O       3.78313      9.74665     11.45072         0.555532     -0.309332     -0.373790
O       0.00377      9.49363     11.44022        -0.973964      0.319031      0.432268
O       7.65973      1.81462      2.69162         0.574012     -0.250910     -0.091963
O       7.72891      1.89716     15.76432         0.044475     -0.122046     -0.792324
O       7.75290     13.46248      2.79899        -0.472929      0.523183     -0.376317
O       7.85136     13.66006     15.81599        -1.521357     -0.593073     -0.298179
O       7.72737      1.87875      7.01937        -0.102980      0.237374     -0.004031
O       7.82601     13.40855      7.03515        -0.138024      0.582714      0.042411
O       7.84619      1.86666     11.54747        -0.177031      0.715765     -1.272707
O       7.64001     13.54952     11.41010         0.747816     -0.578547     -0.331971
O       7.69401      5.81270      2.71154        -0.604139     -0.369433     -0.059205
O       7.74177      5.78342     15.66308        -0.526941     -0.006272     -0.077882
O       7.66443      5.68430      6.87456         0.146119      0.267488      0.333469
O       7.73259      5.75517     11.20849        -0.031984     -0.196699      0.520313
O       7.76705      9.76255      2.79708         0.040391     -0.830233     -0.342648
O       7.62398      9.59977     15.71278         1.231597      0.134102     -0.508536
O       7.69346      9.48913      7.19752         0.638507      1.190275     -0.544073
O       7.77600      9.59982     11.36676        -0.837609      0.126910     -0.186646
O      11.48867      1.94503      2.77639        -0.121184     -0.188228     -0.402283
O      11.61103      1.90786     15.66544        -1.063154     -0.014732     -0.275352
O      11.58521     13.57372      2.72821         0.188833     -0.055480      0.319859
O      11.48497     13.42466     15.78799         0.823119     -0.056868     -0.634686
O      11.56502      1.91236      7.09436        -0.318450     -0.156425      0.088147
O      11.62473     13.59565      7.09116         0.121761     -0.315801     -0.101241
O      11.52493      1.88465     11.51526        -0.239552      0.385220     -0.883023
O      11.57719     13.23597     11.40544        -0.305073      0.407720     -0.121694
O      11.49151      5.65632      2.57921         0.773077      0.273374      0.380107
O      11.58130      5.80976     15.85825        -0.623859     -0.278188     -0.330560
O      11.45858      5.79126      7.00073         0.909624      0.024045      0.164182
O      11.50887      5.84044     11.27100        -0.063457     -0.425960     -0.379652
O      11.57119      9.69557      2.66957         0.177951     -0.104402     -0.075585
O      11.52462      9.58954     15.89736         0.251875      0.244463     -0.629953
O      11.53161      9.68573      7.06551        -0.093263     -0.116747     -0.195270
O      11.59813      9.62267     11.41140        -0.363355      0.144181     -0.326447
O       1.93358      3.70267      2.68934        -0.302600      1.109510     -0.159734
O       1.76081      3.79503     15.74715         0.187688     -0.215041     -0.050912
O       1.87835     15.27093      2.69207         0.154542      2.474129      0.206527
O       1.88050     15.45096     15.81102        -0.082602      0.059246      0.148952
O      13.40966      3.71863      2.73047         0.203035      1.532949      0.003797
O      13.53837      3.81031     15.64096        -0.139317      0.356915     -0.160104
O      13.42101      0.05897      2.68083         0.354583     -1.083212      0.223236
O      13.36811     15.30087     15.73131         0.610382      0.864493     -0.257360
O       1.98162      3.79745      7.06789        -0.351208      1.304320     -0.142235
O       1.82360      0.07997      6.94388         0.354207     -0.906903      0.843966
O      13.31209      3.93140      7.15107         0.645311     -0.263274     -0.374379
O      13.57513      0.01913      7.22819        -0.169249      0.470842     -0.177629
O       1.90529      3.90706     11.43928        -0.266034     -1.058406      0.260109
O       1.96365     15.40732     11.45006        -0.380497      0.714184     -0.215930
O      13.44639      3.86920     11.39351        -0.377963     -0.018056      0.084944
O      13.41529     15.41022     11.47106        -0.311269      0.229663     -0.477131
O       1.87354      7.75306      2.63584         0.162152     -1.203911      0.264989
O       1.98651      7.65766     15.75606        -0.025600      0.066258      0.381182
O      13.46964      7.71682      2.57087        -0.011060     -0.301415      0.037839
O      13.46525      7.66741     16.00019        -0.016451      0.733230     -0.434472
O       1.87841      7.72098      7.17037        -0.288612     -0.907456     -0.744162
O      13.43302      7.77540      7.01777         0.029892     -0.452615     -0.128517
O       1.99932      7.73808     11.52346        -0.308132     -0.596427     -0.716050
O      13.57500      7.60486     11.29596        -0.533637      0.371817      0.415225
O       1.99470     11.49159      2.86655        -0.434133      0.851857      0.061087
O       1.98953     11.52921     15.78749        -0.485479      0.259687     -0.253300
O      13.51993     11.70341      2.83887         0.151291     -0.988544     -0.325444
O      13.46244     11.59631     15.59556         0.234676     -1.430718      0.584038
O       2.03659     11.62007      7.07224        -0.452710     -0.319958      0.122632
O      13.55147     11.66285      7.09594        -0.440042     -0.280897     -0.166654
O       1.76640     11.58037     11.54184         0.260604      0.091460     -0.081868
O      13.66903     11.50970     11.34213        -0.348976     -0.161299      0.431308
O       5.78324      3.75179      2.55172         0.085320      0.854718      0.366996
O       5.91625      3.85730     15.75185        -0.694238     -0.596649     -0.825301
O       5.77856     15.34836      2.77046         0.430852      0.461859     -0.121580
O       5.80335      0.03278     15.88901        -0.171430      0.315187     -1.090601
O       5.79413      3.76970      6.90185        -0.218937      0.461455      0.599730
O       5.97783      0.02623      7.04330        -0.807601     -0.729426      0.023390
O       5.80952      3.81080     11.60608         0.381905      0.181945     -0.710673
O       5.86400      0.04989     11.21957        -0.561481     -0.348106      0.438745
O       5.78553      7.63690      2.64139         0.277362      0.573627      0.231955
O       5.71628      7.74033     15.64700         0.439334     -0.867757     -0.280050
O       5.84109      7.63719      7.05019        -0.383885      0.093305     -0.265089
O       5.78557      7.64991     11.41737        -0.115399      0.770520     -0.190465
O       5.83975     11.59641      2.63375         0.021001     -0.437506      0.126716
O       5.85846     11.64033     15.67468        -0.045415     -0.346576     -0.218453
O       5.77511     11.52223      7.14779         0.221034     -0.033101     -0.133517
O       5.80030     11.55591     11.46248        -0.172356      0.711916     -0.785816
O       9.41169      3.77639      2.68594         1.060067     -0.023157     -0.640255
O       9.64337      3.81994     15.75123        -0.066243      0.108542     -0.741155
O       9.65474     15.45456      2.77721        -0.374796      0.327576     -0.249650
O       9.66759     15.45679     15.59465         0.356021      0.336160     -0.286580
O       9.60887      3.84368      7.04752         0.259385     -0.791079     -0.359573
O       9.70313     15.44788      7.05984        -0.212655     -0.770861     -0.208853
O       9.70649      3.90521     11.24665        -0.068993     -0.864941      0.102594
O       9.72234     15.30598     11.37981        -0.190738      0.860331     -0.770354
O       9.59912      7.64778      2.73044         0.267582      1.163730     -0.247089
O       9.63037      7.71435     15.75259         0.136784      0.329507      0.124089
O       9.63517      7.65691      6.90198        -0.169886      1.006425      0.021422
O       9.58007      7.69527     11.26448         0.318523     -0.184427     -0.169576
O       9.63495     11.64682      2.85992         0.330520     -0.579994     -0.741139
O       9.53344     11.60484     15.70662         0.259247     -1.270091     -0.137720
O       9.65378     11.63358      6.90990         0.149394     -0.908129      0.053236
O       9.59522     11.44111     11.54132         0.042510      0.885639     -0.752888
