  # total energy = -7845.14221868 
CRSYTAL
PRIMVEC
    15.6080000000000005    0.0000000000000000    0.0000000000000000
     0.0000000000000000   15.6080000000000005    0.0000000000000000
     0.0000000000000000    0.0000000000000000   16.6239999999999988
PRESSURE
2.84923 2.76684 -0.454022 0.190468 0.324456 -0.158557
PRIMCOORD
320 1
Pb       3.47022      3.77696      4.08332        -0.073407      0.735205      0.996506
Pb       3.72597      3.92262      0.19792        -0.051413      0.173672     -1.739601
Pb       3.57582     15.56303      4.06333         0.903444     -0.932518      0.832003
Pb       3.98374     15.57362     16.31264        -0.649124     -1.304105      0.647108
Pb      15.34263      3.93531      4.10429         0.502006      0.090891     -0.122097
Pb       0.12580      3.76826     16.33709        -0.130400      0.568359      0.297969
Pb       0.23518     15.40081      4.17822        -0.823130      0.110596      0.147783
Pb      15.52549     15.44328      0.08182         0.021736     -0.224137      0.241575
Pb       3.91640      4.03463      8.35145         0.167133     -1.090170     -0.800000
Pb       3.97316     15.54064      7.91388        -0.516847      0.097166      0.442197
Pb       0.12023      3.88234      8.54858         0.055747     -0.326349     -0.709620
Pb       0.35724      0.24077      8.76550        -1.076010     -0.694081     -1.487686
Pb       4.12986      3.84778     12.58953        -0.547296     -0.020623      0.118138
Pb       3.85896     15.40181     12.51899         0.367031      0.094757      0.185858
Pb      15.45097      3.93068     12.32415         1.157279      0.000258      1.453605
Pb       0.01303      0.19011     12.78253         0.172944     -0.714445     -0.072260
Pb       3.85410      7.44232      4.30734        -0.234257      1.042440     -0.406979
Pb       3.85929      7.78355      0.04557        -0.652964      0.843134     -1.040249
Pb      15.39322      7.86693      4.47280         0.786996     -1.044196     -0.833042
Pb      15.33536      7.84716      0.21467         1.731079     -0.437977     -0.505903
Pb       3.67196      7.70395      7.98830         1.541485      2.692674      2.064647
Pb      15.53214      7.65579      8.39456        -0.498591      0.863783      0.462865
Pb       4.13285      7.96460     12.14078        -1.205702     -0.756342      2.229040
Pb      15.48683      7.87387     12.62285         0.653817     -1.485785     -0.380061
Pb       4.20768     11.42264      3.77200        -0.217689      1.064731      2.276191
Pb       4.23464     11.44589     16.32336        -1.575413      0.451165      0.503926
Pb      15.34835     11.89196      4.17950         0.562216     -0.918821      0.738727
Pb      15.60400     11.58241      0.23089        -0.639868      0.886525     -0.500929
Pb       4.18912     11.63184      8.33877        -1.376612     -0.945081     -0.479081
Pb       0.06428     11.59151      8.81235         0.543854      0.008837     -1.056544
Pb       3.67666     11.55105     12.23723         0.157543      0.813787      0.494849
Pb       0.04338     11.64933     12.52858        -0.058510     -0.009800     -0.481732
Pb       7.67652      3.84958      4.43371        -0.767120      0.093711     -0.337640
Pb       7.86794      3.88867      0.27407        -0.743547      1.268878     -1.069211
Pb       7.31601      0.03972      4.17621         0.911595     -0.171314      0.310312
Pb       7.91232      0.17251      0.26359        -0.696009     -1.779554     -0.773836
Pb       8.12886      3.84162      8.70969        -0.525310     -0.283610     -0.456088
Pb       7.78820      0.10709      8.33873        -0.212320     -0.283112     -0.255927
Pb       7.73386      3.59506     12.70604         0.032129      0.355934     -0.463091
Pb       7.72922     15.56988     12.30333        -0.754015     -0.339633      0.325848
Pb       8.04722      7.74437      4.13293        -1.394412      1.516718     -0.590486
Pb       7.96867      7.68377     16.45309        -0.858614     -0.852637      0.780857
Pb       7.80652      7.56623      8.12242        -0.056910      1.330159      0.596400
Pb       7.80632      7.57791     12.28052         0.238951      1.455487      1.490993
Pb       7.87525     11.68559      4.33352        -0.306113     -0.743645     -0.058039
Pb       7.68874     11.50490      0.02512         0.564925      1.085251      0.129647
Pb       7.89529     11.83347      8.61320         0.779377     -0.511948     -1.160210
Pb       7.33961     11.64754     12.36926         1.055402      0.612903      0.456013
Pb      11.70352      3.99782      4.20251         0.489919     -0.837090     -0.832079
Pb      11.55215      3.79413      0.18462         0.634432      0.177390      0.043135
Pb      11.37665      0.24203      3.81875         3.900049     -0.305369      2.954192
Pb      11.30375     15.50121     16.41511         3.735417      0.602287      1.614186
Pb      11.58612      3.58069      8.20289        -0.327626      0.195342      0.489738
Pb      11.56446     15.42745      8.52240         0.390811      0.209879     -0.298391
Pb      11.73992      4.21419     12.47751        -0.055172     -1.159196      0.201424
Pb      11.84383      0.20365     12.68318         0.593807     -0.189302     -0.001276
Pb      11.91911      8.08087      3.87361        -1.384949     -0.724965      1.528185
Pb      11.20155      7.89086     16.56699         1.504704     -0.886900      0.050777
Pb      11.30466      7.81911      7.98973         0.712842      0.419015      1.016076
Pb      11.76009      7.95687     12.30655         0.118799      0.045722      0.373833
Pb      11.62004     12.12968      4.30705         0.191315     -1.355612      0.292006
Pb      11.48622     11.87325      0.28281         0.992699      0.467246     -0.554294
Pb      12.09283     11.69568      8.46476        -1.195334      0.171404     -0.537939
Pb      11.89756     11.96531     12.67767         0.355215     -0.658145     -0.528198
Ti       1.96780      1.82707      2.01077        -2.475184      0.202499     -0.043146
Ti       2.01388      1.86440     14.60040        -1.558978      0.261885     -0.161854
Ti       2.01451     13.31332      2.33340        -0.050791      1.796557     -1.565855
Ti       2.03684     13.48806     14.62836         0.401631      0.788165     -0.428435
Ti      13.85333      1.78833      2.09018        -2.868423      2.067442      0.056511
Ti      13.60228      1.94729     14.76026         0.840198     -0.443391     -0.038462
Ti      13.59887     13.76759      2.45696         0.175403     -0.876989     -3.601057
Ti      13.86702     13.59749     14.81986        -1.742614     -0.496102      1.493195
Ti       1.75162      1.86897      6.35075         0.507020      0.345645      5.213247
Ti       1.97742     13.33414      6.30279        -0.024411     -0.679943     -0.565589
Ti      13.67032      1.76508      6.35239        -0.274593      0.168650      0.683870
Ti      13.69472     13.68386      6.50162         1.357801     -0.583032     -0.259572
Ti       2.16837      1.94469     10.53086        -0.050653      0.102668     -0.520992
Ti       2.06240     13.68673     10.25105        -0.560882     -1.032811      0.485813
Ti      13.66084      1.87173     10.47793        -0.438258      0.140564     -0.500496
Ti      13.77220     13.71955     10.40432         0.702882      0.522095     -0.771122
Ti       1.79597      5.86018      2.06663        -0.834928     -0.016081      1.017980
Ti       1.99165      5.94653     14.54620         1.444610      0.272895     -2.878886
Ti      13.62257      5.81247      2.10707        -0.022551     -0.740445      0.012642
Ti      13.57999      5.81986     14.81337        -0.000533     -1.412466     -1.239112
Ti       1.79961      5.86210      6.61167        -1.406473     -2.490284     -3.229610
Ti      13.43890      5.65831      6.39258         1.993452      1.135262     -0.458435
Ti       2.28099      5.71773     10.52145        -4.850526      0.938743      3.362323
Ti      13.68576      5.68229     10.40121         0.690301      0.847315     -0.389901
Ti       2.03421      9.64182      2.22701        -0.555883     -0.870787     -1.433964
Ti       1.98679      9.73647     14.71330         0.916768     -2.454511      0.850871
Ti      13.71480      9.71905      1.99868        -0.557307      2.872905     -0.709576
Ti      13.70629      9.48432     14.65197         0.085154      2.191398     -0.060544
Ti       1.82402      9.67358      6.27275         2.137849      2.472277     -0.529708
Ti      13.64846      9.62190      6.33668        -0.780739      1.768830      1.674710
Ti       1.92493      9.57981     10.56893        -0.625222      0.738026     -2.517972
Ti      13.59992      9.60010     10.36854        -0.283694      0.504749      0.938785
Ti       5.72535      1.98912      2.07995         0.655540      0.085751      0.933110
Ti       5.90416      1.88025     14.74770        -1.596326      0.950318     -0.777388
Ti       5.72926     13.70213      1.98193         1.089991     -1.419302     -2.024266
Ti       6.06349     13.64869     14.59925        -1.522979     -1.485740      0.784658
Ti       5.81825      2.04038      6.31894         0.158241     -0.494106      0.486293
Ti       5.91489     13.66646      6.23731        -0.594446      0.433004      0.672934
Ti       5.84036      1.81855     10.43109         0.677804      1.177650     -0.686337
Ti       5.78209     13.65114     10.23394         0.302977      0.579972      2.721902
Ti       5.65168      5.79404      2.13080         1.743188      0.632235     -0.164248
Ti       5.73373      5.92378     14.43067         0.454552     -0.955828      1.283553
Ti       5.80103      5.92914      6.28645         0.320680     -1.004275     -0.741074
Ti       5.96799      5.92328     10.34300        -1.503201     -2.161108     -0.051853
Ti       5.84145      9.61737      1.92347         1.848879     -0.248962      1.100226
Ti       6.18615      9.55544     14.63854        -3.908081      0.477004     -1.058540
Ti       5.82543      9.87067      6.34089         0.096761     -0.683891     -1.053376
Ti       5.94022      9.72354     10.44844         0.028521      0.070367     -2.143052
Ti       9.66287      1.96278      2.08401         1.011541      1.067447      0.366700
Ti       9.66065      1.91862     14.74250         0.382578      0.554665     -1.126239
Ti       9.55893     13.62417      2.37954         0.936965      2.068579     -0.539899
Ti       9.83968     13.57468     14.59046        -1.078774     -0.647181      3.774025
Ti       9.63475      1.82910      6.11799         1.351673      1.222252     -0.251545
Ti       9.80590     13.77409      6.43392        -1.289097     -2.263271      0.088487
Ti       9.81996      1.79918     10.69907        -0.443534      2.009487      0.116907
Ti       9.80552     13.62798     10.60388        -0.060830     -0.641866     -1.368975
Ti       9.63277      5.83226      2.26131         0.865869      0.362506     -2.376523
Ti       9.71291      5.85229     14.45587        -0.681003     -0.681340      2.404091
Ti       9.67208      5.84397      6.17407        -1.142636     -1.259426      1.045076
Ti       9.79814      5.88791     10.58991         1.019730     -0.675535     -1.972505
Ti       9.82706      9.69243      2.11803        -1.495922      0.950427      2.488475
Ti       9.97328      9.80983     14.43343        -3.051586      1.673925     -1.033540
Ti       9.77999      9.88175      6.19681        -0.863239      0.845368     -0.353122
Ti       9.75079      9.83290     10.52400         0.822981     -0.175688     -1.263711
O       1.85190      1.80277      0.25431         0.617145      0.701532      0.284538
O       1.88636      1.60388     12.79824         0.885418      0.656009     -1.903938
O       2.25400     13.30831      0.57047        -0.698245      0.339116     -0.610576
O       1.78591     13.49356     12.79195         0.519011      0.318634      1.173637
O      13.75290      2.02267      0.35840         0.242166     -0.150920     -1.710256
O      13.82529      1.57849     12.90179        -1.401136      1.130780     -0.384013
O      13.76780     13.75726      0.49223        -0.270271     -0.299055      0.978979
O      13.72393     13.94719     13.06174        -0.042322     -0.715246     -0.074963
O       1.85963      1.84671      4.69247         0.198476      0.365432     -4.100529
O       1.94739     13.67571      4.42657        -0.349526      1.062044     -0.386364
O      13.56520      2.15092      4.68587         0.114175     -0.692838     -2.341400
O      13.70213     13.61039      4.56087         0.228232     -0.599387     -0.703577
O       2.15684      2.08865      8.64126        -0.117610      0.176479      1.205192
O       2.13987     13.47825      8.50305        -0.014614     -0.416022     -0.969853
O      13.26671      1.94134      8.66737         0.689029     -0.378749      0.167082
O      13.79951     13.65409      8.45563        -1.223713      0.204417      2.145238
O       1.77007      5.89933      0.34944         1.107123     -0.413280     -1.223521
O       1.98781      5.88546     12.60465        -0.373373     -0.171888      1.439780
O      13.90216      5.92602      0.29385        -1.268787     -0.273931      0.017824
O      13.86697      5.91238     12.98391        -0.688290     -0.458214     -0.421032
O       1.65242      5.66098      4.70024         0.932188      0.842886      0.794768
O      13.54325      6.00376      4.32557         0.354657     -0.661552      1.677483
O       2.00343      5.69414      8.74894        -0.101808     -0.093044     -2.188351
O      13.60550      5.58192      8.63979         0.008947     -0.069156     -1.161371
O       2.03285      9.45561      0.09111        -0.172929      0.797729      1.156153
O       1.83304     10.11253     12.69746         0.267059     -1.975588     -0.144875
O      13.59609      9.56657      0.14293         0.261066      0.268452      0.833139
O      13.67885      9.54983     12.63718        -0.211822      0.037174      2.224498
O       2.03171      9.52235      4.49649        -0.367303     -1.006323     -2.266823
O      13.75106      9.77461      4.57022         0.494909     -0.782078     -1.228935
O       1.77403      9.96464      8.70087         0.314421     -1.039885      0.627481
O      13.54989      9.75776      8.53092        -0.096641      0.290953      0.838391
O       5.61963      2.02454      0.32597        -0.152417     -0.131031     -0.665715
O       5.94255      1.72059     12.95537         0.448767      0.067901     -1.077843
O       5.58802     13.49779      0.04617         0.437922      0.448307      2.921318
O       5.65867     13.40179     12.78395         1.659518      0.429046     -0.307377
O       5.98867      2.00414      4.43133         0.096810     -0.173625     -0.213732
O       5.98696     13.76946      4.48338         0.607170      0.046802     -2.070069
O       5.84412      1.83625      8.64637        -0.179709      0.357312     -0.256286
O       5.56290     13.66313      8.53876         0.757367      0.082902     -1.518619
O       6.11015      5.88821      0.36620        -1.547486     -0.258473      0.597165
O       5.86905      6.11576     12.63519         0.352460     -0.621839      0.319496
O       5.59275      5.73308      4.36014         0.467418      0.471081      1.295693
O       6.06649      5.75248      8.54070        -0.663384     -0.050705      0.500650
O       6.08554      9.47185      0.09651        -0.338380      0.625501      1.027793
O       6.07467      9.77173     12.60319        -0.812367     -0.684393      0.440625
O       5.72796      9.73051      4.53449         0.361489      0.416630      0.778384
O       5.82355      9.83117      8.65178         0.588410     -0.346834     -0.851867
O       9.79541      1.88098      0.10928        -0.477453      0.772589      1.957462
O       9.71822      2.24114     12.97128        -0.615546     -1.590369     -1.438085
O       9.97912     13.99228      0.63218        -1.068943     -1.703243     -0.764040
O       9.84737     13.63483     12.94092        -0.204998     -0.216993     -4.184163
O       9.59409      2.28254      4.33551        -0.032196     -0.345773     -0.394881
O       9.68918     13.65952      4.59232         0.219375     -0.816903     -1.081773
O       9.85601      1.64349      8.93174         0.904976      0.506092     -1.965462
O       9.70710     13.76989      8.65901         1.187752      0.465245      0.630243
O       9.68375      5.98572      0.19115         0.430983     -0.367344      0.458368
O       9.65167      5.81430     12.66183         0.095551      0.234256     -0.859050
O       9.58865      5.71502      4.37710         0.429542     -0.107716     -0.789942
O       9.61245      5.91198      8.65184         0.116359     -0.042164      0.783092
O       9.86685      9.91286      0.37777        -0.244124     -0.285690     -0.897092
O       9.95848      9.96735     12.64981        -0.779692     -0.419238     -0.063647
O       9.70846      9.99195      4.32143        -0.223414     -0.464645      0.027344
O       9.60367      9.52132      8.61663         1.038740      0.598524      0.559687
O       3.77316      2.04570      2.49784         0.958561      0.025656     -0.462918
O       3.83453      1.71606     14.73090         2.253054     -0.610958      0.424080
O       4.02368     13.72038      2.60809        -0.700973     -0.411869     -0.270379
O       3.94341     13.70775     14.66579        -2.207964      0.126365      0.420881
O      15.53485      1.85685      2.60010         2.351601     -0.241872      0.044535
O       0.03542      2.22487     14.61096        -0.853312     -0.537388      0.992944
O       0.02888     13.56923      2.48574         0.735155      0.219766      0.341092
O       0.05108     13.57076     15.29177         1.365160     -0.320891     -1.067230
O       4.06243      1.72545      6.44115        -1.507160      0.535414     -0.286666
O       3.94523     13.73535      6.15301        -0.231867      0.849705      1.418796
O      15.53584      1.91456      6.85066         0.343596      0.897823     -0.271384
O       0.12636     13.24782      6.54708        -0.657405      0.700952     -0.407250
O       4.04212      1.63941     10.92251        -1.185814      0.992358     -0.127677
O       3.88947     13.80997     10.72499         0.510295     -0.921989     -0.047919
O       0.11772      2.07601     10.59010        -0.455435     -0.936416     -0.243279
O       0.06321     13.77669     10.36439         0.174638     -0.486043      0.692664
O       3.78768      5.91416      2.15917         0.721489     -1.292617      0.719897
O       3.86545      5.49651     14.51928         2.420010      0.914011      1.152211
O      15.58838      6.13509      2.36282        -1.113475     -0.117019      0.679366
O       0.31702      5.74221     14.87184        -4.011486     -0.713345      0.248606
O       3.94910      5.87994      6.77659        -1.095144     -0.396971     -0.947965
O      15.50800      5.95530      6.89243         0.643691     -0.801085     -0.902272
O       3.90372      5.88262     11.00849         3.955530     -0.114757     -1.396354
O      15.49117      5.71841     11.03057        -0.185596      0.741765     -2.452635
O       3.96579     10.14256      1.87028         0.166424     -2.109738      0.341984
O       4.05331      9.46433     14.94557        -0.837965      1.411352     -0.747235
O       0.11919      9.74072      1.98905        -0.133593     -0.141472      1.083183
O       0.05458      9.38095     14.84563        -1.045876      1.064243     -0.613641
O       3.85252      9.73900      6.60293         0.710554     -0.558262      0.668418
O       0.04374      9.75120      6.54706        -2.248700     -0.577631      0.036616
O       3.93805      9.76085     10.59529        -1.127755     -0.387729      0.579486
O      15.44195      9.98396     10.75444         0.535173     -0.635374     -0.480742
O       7.71829      1.92557      2.08921         0.611140      0.297927      0.087776
O       7.68204      1.98231     15.00448         2.519109     -0.677513      0.494950
O       7.83142     13.76788      2.01211        -2.452702      0.512347      0.693216
O       7.78972     13.56834     15.11914         2.425516     -0.492447     -0.692342
O       7.93292      1.98421      6.66780        -1.427876     -0.084115     -0.007319
O       7.81243     13.82455      6.64900         1.126836     -1.736160      0.366980
O       7.86279      1.96759     10.54996        -0.619396     -0.495048      1.585281
O       7.83353     13.68822     10.45421        -0.966157     -0.785854      0.877563
O       7.83845      6.09435      2.17044        -0.556571     -0.431412      1.535050
O       7.75827      6.02171     14.82802         0.824079     -0.369393     -1.196943
O       7.67395      5.89637      6.33770         0.761849     -0.359390     -0.037216
O       7.71830      6.09461     10.63010         2.307022     -1.133159     -0.199605
O       7.83105      9.40725      2.32391        -0.550456      1.380826     -0.170046
O       7.88967      9.51984     14.73092         1.637847      1.088528      0.118090
O       7.84095     10.14907      6.27598        -1.113199     -0.981192      0.541297
O       7.87185      9.83774     10.54465        -1.468232     -0.426910      0.823610
O      11.73024      2.01671      2.25711        -1.450367      0.530879      0.466455
O      11.67790      1.77291     14.77525        -0.201206      0.881565     -0.158275
O      11.74331     13.69644      2.55798        -0.594429     -0.042687      0.598071
O      11.74913     13.50414     15.12282        -0.233366      1.011095     -0.942632
O      11.54343      2.08271      6.40998         0.557520     -0.360139      0.718158
O      11.78288     13.75449      6.64768        -0.742165      0.162482      0.067992
O      11.70348      2.06518     10.99931         0.888227     -1.036358      0.116140
O      11.75741     13.61517     10.86124        -1.564192      1.407818     -0.718204
O      11.61234      5.92356      2.27667         1.160778     -0.498988      0.181670
O      11.71404      5.97155     14.69552        -1.502029     -0.412049      0.310072
O      11.51528      5.82414      6.38877         1.123289     -0.397890      0.251947
O      11.82337      5.76546     10.68811        -1.923579      0.166690      0.850593
O      11.82461      9.86443      2.41382        -1.218552      0.106001     -0.382153
O      11.62522      9.73341     14.86480         4.798491     -0.698336      0.217019
O      11.65079      9.64471      6.12110         0.783138     -0.900708      1.531016
O      11.66064      9.87820     10.88691         1.673868     -0.247190     -1.360580
O       1.62600      3.83545      2.44826         1.558057      0.390663     -0.367737
O       2.26043      3.68084     15.04985        -0.913337      1.023897      0.171961
O       1.92073     15.60303      2.28882         0.305358     -0.099964      1.051790
O       1.63715     15.60753     14.91227         0.843131     -1.808101      0.131775
O      13.71740      3.90112      2.21575        -0.285998      1.469914      1.031728
O      13.50701      3.91040     14.90109         0.092531     -0.488348      0.297888
O      13.51173      0.03798      2.49888         0.628274     -0.800488      0.478928
O      13.73314      0.09216     15.17085         0.641995     -0.681872     -0.610713
O       1.99693      3.96246      6.71865         0.117445     -0.825762      0.066972
O       1.79616      0.03257      6.73491         0.423859     -0.228244     -0.449834
O      13.92418      3.89563      6.26230        -1.623103      1.715876      1.528533
O      13.92500     15.53740      6.38994        -0.629452      0.046352      0.354639
O       2.13340      3.85100     10.84093         0.304213     -0.970476     -0.383824
O       2.11938     15.58722     10.18156        -0.374904      0.386896      1.457090
O      13.71753      3.77467     10.62218        -0.394226      0.331130      0.987246
O      13.75602     15.60778     10.73207        -0.765773      0.571291     -0.168144
O       2.12530      7.78781      2.33170         0.157619      0.682328      0.592824
O       2.10702      7.76037     14.67242         0.315398      0.043764     -0.091448
O      13.54844      7.96253      2.37393         1.209803     -1.774778     -0.182565
O      13.68227      7.64650     14.83681         0.195931      2.696075      0.300664
O       1.81281      7.80296      6.61012         0.517545     -1.490233      0.618419
O      13.55625      7.65881      6.83565         0.330610      0.797927     -1.273672
O       1.78166      7.66402     10.38245         0.620565      1.998677      1.170659
O      13.65974      7.81910     10.36551        -0.157155     -0.761014      0.882994
O       2.18667     11.54741      2.57801        -1.845403     -0.206526      0.273820
O       2.18545     11.54229     14.77982        -0.680341      2.229908      0.511641
O      13.72523     11.70399      2.29655         0.199151     -0.549980      0.357154
O      13.84998     11.61606     15.05597        -0.218656     -0.001827     -1.014193
O       2.10655     11.52791      5.95645        -0.044252      1.818689      1.611045
O      13.52917     11.61390      6.74995         0.098096     -0.305275     -1.237829
O       1.91928     11.64394     10.61423         0.178661      1.423674      0.438786
O      13.56102     12.01983     10.94522         0.980201     -1.723114     -0.503069
O       5.97342      3.94191      2.36537        -0.578594     -0.418503     -0.274340
O       5.91673      3.78644     14.74753        -0.464520      0.734630     -0.245818
O       5.85430     15.60191      2.16482        -0.229792      0.882248      0.397716
O       5.98283     15.38793     14.96794        -0.313059      3.030788     -0.005934
O       5.70208      3.86611      6.53780         0.520669      0.708345     -0.156462
O       6.14926      0.00595      6.62511        -1.101550      0.801847     -0.620057
O       5.91050      3.77053     10.78902        -0.472053      1.088088     -0.017083
O       6.01451     15.51780     10.63969         0.026265     -0.225736      0.423314
O       5.49742      7.99458      2.73722         0.290258     -1.301442     -1.637232
O       5.72289      7.69636     14.91019         0.583277     -0.471723     -0.733064
O       5.82716      7.83560      6.65535         0.006184     -0.589068     -0.645592
O       5.75967      7.75702     10.54876         0.390197      1.013689     -0.148207
O       6.01559     11.66959      2.19927         0.206037      0.268560     -0.095850
O       6.08509     11.53031     14.93021         0.145963     -0.575281     -0.965930
O       5.79845     11.83421      6.48368         0.005304     -1.480351      0.539514
O       5.71161     11.67041     10.34133         0.903293      1.073208      1.517842
O       9.75081      3.92704      2.03495        -0.463415     -0.010380      0.476059
O       9.58764      3.96217     14.71893         0.552750      0.718459      1.098767
O       9.77861      0.19825      2.55390        -2.827856     -0.573104     -2.047944
O       9.65743     15.57995     14.87008        -0.341283     -0.096260     -0.606809
O       9.55854      3.88628      6.73483         0.538507      1.161250     -0.758783
O       9.67149     15.53836      6.19495         0.583224      2.744528      0.997096
O       9.71734      3.84456     10.75904        -0.121974      1.742515     -0.464940
O       9.58230     15.58227     10.93720         1.368283     -0.954492      0.364034
O       9.76973      7.85639      2.29660         1.186497     -0.541757      0.474055
O       9.71934      8.00962     14.68370         0.605682     -3.315962      0.451403
O       9.45527      7.86332      6.40471         0.849249     -1.438508     -0.191558
O       9.96049      7.77910     10.75517        -0.734788     -0.485533      0.196987
O       9.66292     11.90390      2.45155         0.411843     -3.333489     -0.290087
O       9.99284     11.68046     14.92676        -1.542688      0.894702      0.285124
O       9.93660     11.65607      6.64728         0.059381      1.369496      0.079335
O       9.67198     11.71604     10.54658         0.196904      0.959913      0.103098
