  # total energy = -7883.13736476 
CRSYTAL
PRIMVEC
    15.464    0.0000000000000000    0.0000000000000000
     0.0000000000000000   15.464    0.0000000000000000
     0.0000000000000000    0.0000000000000000   17.350608
PRESSURE
-1.58165 -1.17971 -5.46249 0.425685 -0.071076 0.019611
PRIMCOORD
320 1
Pb       3.89182      4.07333      4.41228        -0.104458     -0.290240     -0.200695
Pb       3.88809      3.91444      0.03801         0.383906     -0.224638     -0.287107
Pb       3.70278      0.01315      4.32157         0.205440     -0.015394      0.091435
Pb       3.83408     15.38449     17.32102         0.024515      0.186030     -0.191689
Pb       0.20293      3.87627      4.35439        -0.665745      0.041280      0.225441
Pb      15.44151      3.82341     17.33428        -0.058396     -0.057336     -0.182051
Pb       0.03079     15.41318      4.28424        -0.165688     -0.067970      0.535767
Pb       0.02380     15.42414     17.30003        -0.069634      0.137305      0.061006
Pb       3.88433      3.87088      8.64322        -0.147666     -0.126478      0.069166
Pb       3.79922     15.40256      8.64471        -0.135633     -0.194026     -0.190423
Pb      15.42391      3.73159      8.68474         0.267165      0.616430     -0.110119
Pb      15.34300     15.36176      8.56071         0.404662     -0.137059     -0.086176
Pb       3.90978      3.68421     12.90440        -0.035852      0.128250      0.215265
Pb       3.93771     15.28155     12.98585        -0.012073      0.333449      0.143224
Pb       0.06351      3.81140     12.92406        -0.021458      0.088356      0.122159
Pb       0.03567      0.07843     13.00633         0.284829     -0.308421     -0.242669
Pb       3.69540      7.77989      4.33170         0.424655     -0.462539      0.219232
Pb       3.69374      7.60933      0.02390         0.693675      0.253283     -0.260741
Pb      15.40578      7.72297      4.29440        -0.004896     -0.018572     -0.153938
Pb      15.36687      7.67240     17.24922        -0.046766     -0.072872      0.246776
Pb       3.98096      7.82959      8.66062        -0.454082     -0.010675      0.043263
Pb       0.09123      7.62059      8.71261         0.126870      0.388913     -0.211726
Pb       3.88454      7.70190     12.91166        -0.077532     -0.277459      0.098912
Pb       0.02178      7.85078     13.00946        -0.255050     -0.408353     -0.117600
Pb       3.70178     11.59116      4.25415         0.118677      0.426113      0.027073
Pb       3.82672     11.57005     17.31553        -0.100409      0.029039     -0.251811
Pb      15.33284     11.50447      4.23557         0.222762      0.319863      0.523152
Pb       0.01157     11.55987     17.26360        -0.192368      0.122967      0.091439
Pb       3.78115     11.63030      8.51369        -0.070473      0.018143      0.239041
Pb      15.30912     11.48251      8.66732         0.139315      0.336490     -0.189941
Pb       3.84997     11.52730     12.97982         0.135498      0.296031     -0.000739
Pb      15.34038     11.71680     12.93456         0.342681     -0.205337      0.114852
Pb       7.63985      3.92262      4.29969        -0.106439     -0.283800     -0.299338
Pb       7.71956      3.96389      0.00769        -0.178969     -0.245909     -0.283582
Pb       7.70847     15.39930      4.28878        -0.010476      0.235948      0.117084
Pb       7.65861     15.45855      0.04092         0.296462     -0.223008     -0.070692
Pb       7.73092      3.82530      8.68683         0.081093     -0.073448     -0.417016
Pb       7.64214      0.10029      8.63246         0.347126     -0.540062     -0.458253
Pb       7.68177      3.69593     12.93455         0.433078      0.323455      0.114336
Pb       7.80082     15.35826     13.01686        -0.109194     -0.096729      0.405474
Pb       7.62115      7.73335      4.29794         0.032930      0.576092     -0.013118
Pb       7.70231      7.58521     17.33051        -0.180298      0.334499     -0.167268
Pb       7.81349      7.67767      8.68609        -0.091446      0.356991     -0.464443
Pb       7.59422      7.66202     12.93806         0.226635     -0.022573      0.331399
Pb       7.65762     11.58080      4.16749         0.398039     -0.390669      0.547453
Pb       7.67576     11.42652     17.32968         0.039774      0.593746     -0.009336
Pb       7.51998     11.64839      8.63449         0.742218     -0.165240     -0.272149
Pb       7.75973     11.57322     13.00675         0.099235      0.008696      0.293497
Pb      11.59714      3.84444      4.30057         0.198479     -0.084150      0.023671
Pb      11.64542      3.94613      0.01522        -0.137597      0.059073     -0.193076
Pb      11.63839     15.39712      4.18506        -0.191035     -0.052617      0.443535
Pb      11.60501      0.13654      0.05946        -0.255730     -0.261278     -0.253616
Pb      11.71920      3.78275      8.69502        -0.473715      0.338653     -0.381053
Pb      11.55688     15.42835      8.63553        -0.300170     -0.272532     -0.161559
Pb      11.74010      3.73368     13.07451        -0.666105      0.322846     -0.291452
Pb      11.72150     15.34257     13.04400        -0.410995     -0.108777     -0.264311
Pb      11.63275      7.75454      4.26463        -0.185618      0.108178      0.014197
Pb      11.67038      7.74980     17.21386        -0.369884     -0.071567      0.715628
Pb      11.69642      7.68244      8.70070        -0.159730     -0.151389     -0.528909
Pb      11.54472      7.83310     13.05665         0.240500     -0.338549     -0.122438
Pb      11.53281     11.46014      4.20588         0.265243      0.464897      0.464391
Pb      11.56637     11.51083     17.29129         0.015377      0.064808      0.308797
Pb      11.49138     11.43698      8.59816        -0.007307      0.792470      0.175514
Pb      11.63090     11.63247     12.98655        -0.244435     -0.084003     -0.140547
Ti       1.88631      2.01553      2.37536        -0.195575     -0.200485     -1.741739
Ti       1.98207      1.93864     15.37191         0.001987     -1.122315     -1.563413
Ti       1.91776     13.59123      2.26418        -0.706094     -0.883754     -0.586510
Ti       1.86965     13.47622     15.31394         0.145954      0.047272     -0.491875
Ti      13.50608      1.95768      2.34937         0.116571      0.297336      0.084162
Ti      13.52757      1.95844     15.31468         0.538892     -0.239467      1.054176
Ti      13.57928     13.54057      2.31827        -0.237312     -1.080616     -1.127482
Ti      13.45892     13.52248     15.41465         0.597690     -0.155473     -1.373660
Ti       1.94265      1.92737      6.77951        -0.626679     -0.306883     -1.185181
Ti       1.89610     13.47640      6.64213        -0.676644      0.502674     -2.039299
Ti      13.49608      2.00965      6.68669         0.621465     -0.550664     -2.049597
Ti      13.44672     13.56653      6.64841         0.495299     -0.662315      0.163959
Ti       1.92815      1.87740     10.94457         0.167862     -0.038914     -0.256905
Ti       1.93543     13.53212     11.02704        -0.150929      0.002888     -0.693145
Ti      13.47799      1.95113     10.93140         0.362224     -0.656687     -0.683241
Ti      13.51240     13.52365     10.92702        -0.424142      0.067046     -0.861961
Ti       1.89886      5.87502      2.29595        -0.861123     -0.790386      0.284737
Ti       1.93795      5.72616     15.30788        -0.152112      0.337740      0.161464
Ti      13.46101      5.78191      2.33344         1.260181      0.506116     -1.340105
Ti      13.49414      5.82320     15.23222         0.321447     -0.000824     -0.362247
Ti       1.99155      5.84059      6.77379        -0.695070      0.016234     -1.162626
Ti      13.58211      5.85249      6.55950         0.235174     -0.523411      0.118725
Ti       1.89827      5.79139     10.99998         0.055038     -0.009816     -2.024905
Ti      13.49519      5.85364     10.95262        -0.013747     -0.573418      0.390238
Ti       1.95884      9.67007      2.28377        -0.803131      0.132234     -0.776992
Ti       1.92475      9.54301     15.23849         0.003750      1.040438      0.126928
Ti      13.57215      9.66328      2.26674        -0.228502     -0.206651     -1.352333
Ti      13.51297      9.63768     15.31354        -0.024465      0.623227     -1.254440
Ti       1.90765      9.62929      6.57705        -0.896613      0.204600     -0.389923
Ti      13.46524      9.65815      6.71047         1.049095      0.513797     -1.858585
Ti       1.96920      9.67070     11.02296        -1.174245      0.190860     -0.604337
Ti      13.51977      9.64118     10.99619         0.261909      0.382175     -0.483038
Ti       5.67424      1.92298      2.29671         0.189489      0.111404     -0.170123
Ti       5.86606      1.94734     15.39886        -0.721457     -0.021561     -1.756199
Ti       5.82987     13.53402      2.30910        -0.844948      0.389881     -0.818173
Ti       5.80786     13.55024     15.44122         0.307772     -0.637042     -1.655975
Ti       5.72794      1.86871      6.57642         0.127382      0.111565     -0.707941
Ti       5.79088     13.48972      6.56408        -0.340706      0.867241     -0.100504
Ti       5.78697      1.78845     10.92134        -0.431321      1.481832     -0.462430
Ti       5.80274     13.50788     10.90990        -0.106684     -0.137311     -0.058682
Ti       5.70647      5.84743      2.36478         0.067495      0.341066     -1.895990
Ti       5.75526      5.78487     15.26645         0.122211     -0.289000      0.404605
Ti       5.84382      5.79796      6.74724        -0.313442      0.218218     -1.894785
Ti       5.78225      5.73688     10.93062        -0.030725      0.067721     -0.074666
Ti       5.71024      9.69695      2.22747         1.165768     -0.256284     -0.068153
Ti       5.70719      9.58625     15.36727        -0.145839      0.725467     -0.790019
Ti       5.75312      9.68307      6.57731         0.571101     -0.127226      0.079725
Ti       5.77943      9.69618     10.95093        -0.270477     -0.007826     -1.492765
Ti       9.56315      1.97699      2.29032         0.131082     -0.337533     -1.340265
Ti       9.71072      1.96853     15.39670        -0.223564     -0.106449     -1.636048
Ti       9.63629     13.55224      2.38361         0.565497     -0.111719     -1.897812
Ti       9.66632     13.51967     15.43568        -0.810752      0.125653     -0.672158
Ti       9.62552      1.93937      6.63866         0.111885     -0.227970     -0.247218
Ti       9.63630     13.53395      6.66726        -0.046730     -0.093166     -1.558140
Ti       9.67464      1.85205     11.00070         1.332452      0.026840     -0.689705
Ti       9.63374     13.46462     11.09536         0.857799      0.344456     -1.367714
Ti       9.57727      5.81395      2.36023         0.904074      0.550389      0.308452
Ti       9.65991      5.76995     15.32689        -0.349299      0.298899      0.040366
Ti       9.71786      5.76744      6.70078         0.141255      0.186094     -0.577059
Ti       9.68552      5.74155     10.99068        -0.143611     -0.534341      0.962829
Ti       9.66315      9.62737      2.30867        -0.521926      0.331247     -1.240619
Ti       9.59791      9.61323     15.37848         0.113607      0.132528     -0.619782
Ti       9.59130      9.66371      6.65252        -0.123021      0.271338     -1.122761
Ti       9.63025      9.52164     10.99257         0.034301      2.404712     -0.968234
O       1.68661      1.99163      0.55357         0.828718      0.073538      0.963098
O       1.94406      1.87834     13.48214         0.003167     -0.011818      1.728188
O       1.71020     13.52556      0.43772         0.393053      0.165517      1.323032
O       1.83071     13.61003     13.46373         0.471036     -0.145398      1.263264
O      13.48343      1.95108      0.55968         0.211884      0.190496      0.377867
O      13.52396      1.86801     13.57711        -0.144795     -0.039027     -0.651409
O      13.71792     13.53030      0.50593        -0.593348     -0.065293      0.528889
O      13.48392     13.47675     13.51030        -0.202208      0.242790      1.522203
O       1.90717      1.91723      4.96089        -0.022384     -0.027700      0.558982
O       1.88942     13.64001      4.77041         0.286753     -0.215445      1.176913
O      13.55614      2.10595      4.85434        -0.164058     -0.432282      0.755935
O      13.54195     13.51727      4.91355        -0.131599     -0.085248     -0.834658
O       2.00608      1.98306      9.14647        -0.340450     -0.093433      0.354961
O       1.98409     13.54650      9.26712        -0.068372     -0.084407     -0.655885
O      13.54740      2.03857      9.07957        -0.432619     -0.194660      1.253050
O      13.50687     13.48880      9.10773        -0.067305      0.229802      1.050983
O       1.94250      5.90402      0.49425        -0.094183     -0.340657      0.131601
O       2.01861      5.74406     13.58603        -0.003588     -0.113144     -0.770482
O      13.62447      5.78577      0.45508        -0.445803      0.070517      1.101399
O      13.38671      5.91998     13.46216         0.188863     -0.252642      0.581655
O       2.06344      5.89012      4.83539        -0.354837     -0.205930      1.704604
O      13.59073      5.80240      4.74681        -0.311922      0.194715      1.121459
O       1.85673      5.85036      9.04239         0.072612     -0.170123      2.445940
O      13.45535      5.70792      9.14174         0.168574      0.471738      1.370905
O       1.99641      9.47219      0.50200        -0.293577      0.492212      0.696967
O       1.93815      9.63227     13.44328         0.407469     -0.095849      0.513373
O      13.60105      9.66744      0.42071        -0.217516     -0.102668      0.951705
O      13.39606      9.59460     13.45152         0.200755      0.073740      1.087262
O       1.89647      9.55051      4.74360         0.101492      0.161383      0.977868
O      13.64821      9.66662      4.82284        -0.558057     -0.186411      1.642569
O       1.84019      9.57897      9.25675         0.225035      0.435344      0.158866
O      13.58927      9.72989      9.14858        -0.333803     -0.422946      1.057955
O       5.73100      1.91379      0.49293        -0.128732      0.286025      0.490786
O       5.76652      1.96269     13.48419         0.275617     -0.148657      1.421970
O       5.85595     13.57376      0.49753        -0.242767     -0.069558      0.673941
O       5.83875     13.68458     13.53306        -0.267956     -0.387430      1.408786
O       5.66765      1.84266      4.74040         0.519779      0.418185      1.514109
O       5.77631     13.54463      4.78929         0.051268      0.005600     -0.105125
O       5.76379      1.93314      9.10011         0.310596     -0.365422      1.356312
O       5.79646     13.61413      9.11611         0.007661     -0.338504      0.701088
O       5.74787      5.81237      0.47914         0.227552     -0.132128      1.719795
O       5.62474      5.83227     13.50164         0.309029     -0.113541     -0.262715
O       5.65780      5.89646      4.81710         0.560395     -0.538104      1.574131
O       5.83480      5.85133      9.10720        -0.062799     -0.288219      0.670770
O       5.72886      9.81332      0.44076        -0.071891     -0.361164      0.165441
O       5.57406      9.77155     13.56391         0.196460     -0.650163      0.430864
O       5.73104      9.70638      4.81553         0.178900      0.019598      0.324220
O       5.69350      9.66035      9.08217         0.513647      0.082952      1.577107
O       9.66606      1.98568      0.44677        -0.081132     -0.040736      1.299967
O       9.81121      2.13841     13.53787        -0.405012     -0.371173      1.288823
O       9.53458     13.62498      0.57119         0.390979     -0.193993      0.868969
O       9.62084     13.46686     13.60311         0.080864      0.088042      0.952125
O       9.58834      2.00186      4.85083        -0.091410     -0.002931      0.405059
O       9.57615     13.67011      4.83898         0.077929     -0.253126      0.348136
O       9.78106      1.77651      9.17153        -0.512690      0.237219      0.987701
O       9.69128     13.51819      9.32084        -0.112191      0.074812     -0.429924
O       9.60814      5.83098      0.61298        -0.309780      0.077161     -0.045210
O       9.61535      5.75777     13.60501         0.256691      0.095573     -0.993773
O       9.80028      5.78156      4.92341        -0.489290     -0.250027      0.222165
O       9.60062      5.92864      9.24016         0.043955     -0.166996     -0.369883
O       9.67917      9.62095      0.46131        -0.144178      0.113126      1.195870
O       9.65885      9.67802     13.58275         0.034899     -0.165739      0.464693
O       9.67941      9.64405      4.83552        -0.145697      0.127195      0.924180
O       9.53901      9.64057      9.14203         0.263829     -0.269728      1.409175
O       3.76355      1.99739      2.74572         0.662584     -0.372164     -0.394118
O       3.92115      2.00197     15.76711        -1.058610     -0.234155     -0.065457
O       3.77263     13.48165      2.56785         0.868595      0.545855      0.103933
O       3.77145     13.44542     15.82441         0.324994      0.563561     -0.521347
O      15.45492      1.95865      2.75918        -0.705675      0.424388      0.032193
O      15.46262      1.84999     15.71238        -0.672245      0.017505     -0.277363
O      15.41047     13.41410      2.79699         1.038120      0.485201     -0.361176
O      15.36661     13.52155     15.62724         0.665667      0.277043      0.046110
O       3.85133      1.94116      7.03964        -0.128376     -0.235839      0.040925
O       3.77437     13.56063      6.94658         1.161814     -0.034592      0.450408
O      15.43803      2.00387      7.13624         0.290295     -0.556885     -0.240903
O      15.45394     13.49989      7.00262         0.068631      0.057246      0.387665
O       3.87961      1.93128     11.25009         0.550803     -0.086491      0.093862
O       3.91185     13.51629     11.29245         0.046272      0.487393      0.505910
O       0.00622      1.85416     11.33941        -0.288806     -0.141385     -0.102008
O      15.41387     13.53738     11.31915        -0.027392      0.304612      0.159187
O       3.81808      5.83763      2.72604        -0.065100      0.493020     -0.378799
O       3.90404      5.70237     15.79952        -1.095697     -0.241959     -0.212108
O      15.43693      5.74220      2.61997         0.439490      0.213101      0.300462
O       0.00493      5.98156     15.54798         0.287846     -0.479690      0.235310
O       3.84154      5.94847      7.08659         0.629051     -0.508071     -0.032570
O      15.45972      5.96369      6.99190        -0.734555     -0.688614     -0.333827
O       3.81901      5.71694     11.27056         0.190347      0.289171     -0.069565
O      15.44496      5.79293     11.39187         0.113621     -0.118479     -0.194471
O       3.85979      9.69068      2.71143        -0.249315     -0.101686     -0.242433
O       3.79335      9.78830     15.75751         0.398709     -0.494465     -0.381747
O      15.44667      9.66471      2.62366         0.528012     -0.022465      0.018202
O      15.45005      9.62933     15.55994         0.264500     -0.422882      0.097049
O       3.82005      9.66148      6.97637         0.416105     -0.451111      0.011081
O       0.04663      9.77564      7.07256        -0.517197     -0.429108     -0.354924
O       3.83485      9.60776     11.22300         0.397399      0.355097      0.656174
O      15.43518      9.65682     11.51371        -0.200017      0.033984     -0.627220
O       7.61528      2.06368      2.53494         1.009896     -0.038537      0.576803
O       7.73710      1.88454     15.66321         0.123933      0.260005      0.157165
O       7.70917     13.56316      2.72248         0.247479      0.017991      0.053601
O       7.70981     13.64988     15.81774         0.202385     -0.214633     -0.382630
O       7.66230      1.98514      7.06477        -0.144766     -0.161003     -0.254175
O       7.68104     13.44485      7.00534        -0.047039      0.186595      0.094280
O       7.87224      1.82457     11.37045        -1.908097      0.236691     -0.165302
O       7.73169     13.44210     11.40655        -0.859597      0.687802     -0.002615
O       7.62158      5.87966      2.79477         1.408723     -0.449415     -0.174919
O       7.71123      5.90096     15.67612        -0.142812     -0.499730      0.258013
O       7.74639      5.68123      7.03448        -0.594656     -0.033856      0.007504
O       7.66551      5.82089     11.45662         0.066572      0.157559     -0.507938
O       7.67707      9.70045      2.62029         0.521318      0.183071      0.136348
O       7.65353      9.65821     15.62157        -0.033896     -0.349881      0.318890
O       7.70582      9.85188      7.00834        -0.561081     -0.350209     -0.236899
O       7.62572      9.68988     11.46648         0.503113     -0.161816     -0.479085
O      11.55461      1.84785      2.61555         0.346657      0.402709      0.284848
O      11.60236      2.10309     15.75844         0.524944     -0.096995      0.083275
O      11.64624     13.48288      2.65324        -0.773295      0.486222      0.167444
O      11.55814     13.47956     15.76973        -0.186781     -0.186269      0.138137
O      11.64366      1.96400      6.93059        -1.468349     -0.183793      0.428269
O      11.55873     13.60588      6.93266        -0.376253      0.021671      0.515332
O      11.63498      2.02905     11.33593        -0.062498      0.034870      0.074252
O      11.63036     13.41664     11.40264         0.017196      0.067175      0.235707
O      11.62448      5.84742      2.71176        -1.562728      0.104011     -0.075665
O      11.58576      5.84681     15.77872         0.337028     -0.461115     -0.312182
O      11.62295      5.83707      7.12828        -0.595360      0.028740     -0.357079
O      11.57729      5.83849     11.36980         0.021210     -0.226271     -0.400218
O      11.62090      9.64968      2.69716        -0.388157     -0.071939     -0.198443
O      11.61178      9.69434     15.73840        -0.631072     -0.145159     -0.191662
O      11.57262      9.64457      7.00767        -0.133865     -0.318400      0.216711
O      11.54145      9.59974     11.28176         0.227064      0.169677     -0.026185
O       1.94175      3.92226      2.76390        -0.001444     -0.078578     -0.256094
O       1.80883      3.75000     15.71138         0.294932      1.633808      0.083078
O       1.87516      0.03778      2.69159        -0.017868     -0.357417     -0.247876
O       1.95101     15.42623     15.81134        -0.048545      0.237156     -0.489617
O      13.37975      3.92934      2.67420         0.388322     -1.565358     -0.269999
O      13.63097      3.94804     15.53274        -0.285219     -0.883960      0.396554
O      13.61483     15.37739      2.73147        -0.405070      1.567874     -0.203898
O      13.34215      0.00699     15.75684         0.385391      0.136113     -0.326125
O       1.81745      3.91504      7.07088         0.753355     -0.072733     -0.235655
O       1.94742     15.41702      7.10708        -0.437863      0.936441     -0.055860
O      13.46557      3.91643      7.00948         0.428733      0.475393      0.060508
O      13.51729     15.45070      6.96950         0.278653      0.794961      0.377719
O       1.89590      3.81386     11.43410        -0.018344      0.427412     -0.531360
O       2.00737     15.45582     11.34746        -0.334394      0.358961      0.088136
O      13.62381      3.76669     11.45151        -0.353987      0.992086     -0.440958
O      13.31976     15.43835     11.27529         0.822386      0.415509     -0.034701
O       1.84082      7.72210      2.71225         0.498234      0.320386     -0.177463
O       2.11736      7.68885     15.60347        -0.429438      0.086390     -0.035056
O      13.48317      7.75024      2.60743         0.416992     -0.082162      0.326580
O      13.47965      7.75497     15.63416        -0.024166      0.005282      0.237385
O       1.84206      7.76633      7.10600         0.525910      0.355438     -0.403764
O      13.48370      7.75730      7.02684         0.060071     -0.135901      0.008393
O       1.88082      7.71576     11.32472         0.170521     -0.669638      0.287442
O      13.52570      7.70040     11.34196        -0.009843      0.297231     -0.440233
O       1.97914     11.59412      2.58326        -0.450845     -0.349523      0.087749
O       1.84165     11.56262     15.68031         0.065960      0.244639     -0.226890
O      13.50397     11.54764      2.67949         0.047980      0.146477      0.016266
O      13.48691     11.56542     15.71716         0.175847      0.280429     -0.108281
O       2.02544     11.59101      6.77994        -0.112635     -0.497937      0.603645
O      13.46104     11.58690      7.07905        -0.030815     -0.364648     -0.049425
O       1.94313     11.66384     11.36590        -0.040183     -1.185002      0.199996
O      13.55865     11.54365     11.32068        -0.208448      0.091151      0.057405
O       5.70603      3.99260      2.64366         0.150205     -1.151629      0.388431
O       5.84031      3.86711     15.71221         0.240293     -0.191163      0.104920
O       5.82945      0.02722      2.58742        -0.408173     -0.063827      0.200525
O       5.74489     15.43689     15.73309        -0.356078      0.924875      0.326347
O       5.60396      3.83635      6.98048         0.699811      0.562803     -0.174340
O       5.77052     15.40276      6.95760         0.096001      1.007297      0.043757
O       5.82496      3.84414     11.29017         0.157767     -0.220062     -0.167611
O       5.84166      0.00233     11.33256         0.060062     -0.507016     -0.152678
O       5.86556      7.83000      2.54660        -0.587173     -0.444337      0.302495
O       5.73645      7.64535     15.69948        -0.264121      1.573575     -0.230263
O       5.90762      7.70906      6.92429        -0.199330      0.655416      0.368727
O       5.73189      7.75291     11.37941         0.067190     -0.285222     -0.315929
O       5.87088     11.65784      2.64858        -0.739165     -0.328869     -0.063467
O       5.77001     11.66057     15.64246         0.176617     -0.557858      0.438496
O       5.69132     11.64465      6.98687        -0.109586     -0.818256      0.151296
O       5.69515     11.62736     11.22858         0.301405     -0.723078      0.259452
O       9.65382      3.92285      2.63429        -0.176768     -0.296311      0.354261
O       9.62746      3.93892     15.80195        -0.110535     -0.637708      0.216109
O       9.67717      0.03379      2.60863        -0.532915      0.270312      0.440315
O       9.74335      0.05718     15.60053         0.130532     -0.159197      0.437177
O       9.57386      3.80869      7.15075         0.712942      0.448044     -0.201175
O       9.54428     15.44704      7.00025         0.169972      0.838342      0.380046
O       9.60022      3.88256     11.29536         0.060934     -0.048099     -0.236888
O       9.80251     15.41358     11.45474        -0.258694      0.549780      0.175383
O       9.63334      7.81654      2.76255        -0.059214     -1.507691     -0.024336
O       9.67897      7.70902     15.75928        -0.036803      0.532975     -0.129234
O       9.47673      7.73879      6.96224         0.416318     -0.398681      0.368542
O       9.61791      7.77654     11.42978        -0.398834     -1.224558     -0.037168
O       9.70827     11.57639      2.66180        -0.423020      0.383152      0.089521
O       9.51116     11.57438     15.79971         0.700228      0.176816     -0.196050
O       9.73246     11.63729      6.92820        -0.055103     -0.394752      0.471928
O       9.63471     11.63999     11.47673         0.046282     -1.790601      0.052705
