  # total energy = -7883.97082248 
CRSYTAL
PRIMVEC
    15.464    0.0000000000000000    0.0000000000000000
     0.0000000000000000   15.464    0.0000000000000000
     0.0000000000000000    0.0000000000000000   17.350608
PRESSURE
-0.476845 -0.375325 -2.286 -0.309026 0.052623 -0.026676
PRIMCOORD
320 1
Pb       3.77080      3.99498      4.22859         0.514760     -0.443149      0.724556
Pb       3.69625      3.88449      0.10939         0.446498     -0.077208     -0.571449
Pb       3.83593     15.34070      4.29185        -0.088740      0.231135      0.740750
Pb       3.69941     15.38503      0.01781         0.559335      0.131099     -0.345460
Pb      15.37139      3.86097      4.27037         0.329201     -0.047960      0.067473
Pb       0.04864      3.98160     17.27773        -0.197693     -0.351027      0.481121
Pb       0.03332      0.00704      4.37599        -0.362186     -0.689182     -0.099123
Pb       0.05410     15.45902     17.28930        -0.564201      0.192017      0.398807
Pb       3.90433      3.85137      8.65253        -0.173276     -0.181003      0.143242
Pb       3.79506      0.05226      8.60581         0.100741     -0.310390      0.034361
Pb       0.09736      3.92425      8.75202        -0.198953     -0.147179     -0.322033
Pb       0.04017     15.44794      8.61456        -0.260164     -0.116024      0.125218
Pb       3.94180      3.85919     13.05715        -0.201143     -0.084483     -0.272802
Pb       3.81478      0.01429     12.98994         0.310842     -0.084235      0.010957
Pb       0.02996      3.79305     12.99656        -0.156727     -0.102137     -0.310508
Pb       0.02469     15.39019     13.04170        -0.393401      0.401302     -0.631840
Pb       3.86093      7.71886      4.37179        -0.435449     -0.173894      0.246696
Pb       3.94480      7.74822     17.19897        -0.237600     -0.029061      0.336327
Pb       0.09209      7.74326      4.37492        -0.130295      0.003802     -0.465286
Pb       0.00486      7.67807     17.23173        -0.398457      0.161869      0.693891
Pb       3.81294      7.69942      8.61468         0.027126      0.353091      0.342805
Pb      15.31877      7.76471      8.57181         0.234014     -0.118259      0.193486
Pb       3.81003      7.70720     12.97269         0.354161     -0.081492     -0.295356
Pb      15.42971      7.60594     13.05396         0.145389      0.590436     -0.148977
Pb       3.73330     11.52323      4.25781        -0.053305      0.069603      0.157751
Pb       3.76438     11.58251     17.28626         0.335973      0.089046     -0.651979
Pb       0.01754     11.53377      4.26329        -0.125698      0.615958     -0.172676
Pb       0.00164     11.55007     17.28873        -0.186034      0.344145      0.309399
Pb       3.78208     11.53719      8.51675         0.339517      0.238098      0.531198
Pb       0.04002     11.58641      8.73086        -0.503748      0.280956     -0.315448
Pb       3.84970     11.62547     12.91643         0.078755     -0.396164      0.128712
Pb      15.45052     11.55557     13.17981        -0.277991     -0.302035     -0.533472
Pb       7.73390      3.92165      4.18069         0.113815     -0.507200      0.912669
Pb       7.69457      3.88870     17.31569         0.169750     -0.923037      0.201190
Pb       7.59957      0.01598      4.30555         0.828908     -0.132031      0.315332
Pb       7.76703      0.00026     17.30237        -0.402307      0.110216     -0.121354
Pb       7.70996      3.81145      8.68778         0.354582     -0.236488     -0.189187
Pb       7.71516     15.37715      8.57033         0.126463      0.056556      0.563781
Pb       7.71786      3.85971     12.97495        -0.064337     -0.569748      0.649709
Pb       7.61200     15.33254     12.90286         0.167260      0.932479      0.485000
Pb       7.66606      7.65584      4.29836         0.230287      0.243445      0.012150
Pb       7.62012      7.64203     17.22848         0.825171      0.583456      0.625573
Pb       7.74855      7.73800      8.61395        -0.023620     -0.202424      0.486379
Pb       7.70423      7.68901     12.90982         0.319090      0.116349     -0.164021
Pb       7.67761     11.56816      4.22475         0.299947      0.056486      0.000222
Pb       7.73992     11.63181     17.33700        -0.228628     -0.339322     -0.101782
Pb       7.68700     11.55419      8.64214         0.095323      0.494901      0.125084
Pb       7.75063     11.65729     13.06405        -0.264674     -0.355338     -0.472365
Pb      11.73599      3.88490      4.11495        -0.581945     -0.654106      0.902248
Pb      11.62952      3.82718     17.25346        -0.366675      0.077032      0.588657
Pb      11.53667      0.07611      4.23159         0.301348     -0.786794      0.496389
Pb      11.59417      0.06450     17.24383         0.263539     -0.034168      0.377490
Pb      11.47677      3.78354      8.49268        -0.108040      0.031800      0.739649
Pb      11.62758      0.02099      8.67815        -0.128187     -0.088128     -0.194637
Pb      11.57708      3.81233     12.93238         0.360564     -0.250223      0.264407
Pb      11.64573     15.41636     12.96037        -0.379280      0.243674     -0.171428
Pb      11.53297      7.78135      4.36896        -0.019777      0.178324     -0.435641
Pb      11.53417      7.76619     17.32909         0.152782     -0.235628     -0.029337
Pb      11.65991      7.77220      8.51122        -0.091238     -0.112271      0.776873
Pb      11.62465      7.79441     12.91289        -0.337430     -0.364690      0.350923
Pb      11.56598     11.57689      4.22482        -0.194331      0.267838      0.199607
Pb      11.59188     11.49438     17.33294         0.169929      0.367897      0.038725
Pb      11.69738     11.59650      8.67870         0.042860     -0.330430      0.288595
Pb      11.50540     11.53236     13.17601         0.584943      0.018914     -0.612015
Ti       1.99267      1.88424      2.36548        -1.095634      0.164653     -0.759644
Ti       1.91905      1.97744     15.33548         0.411093     -0.164198      0.103721
Ti       1.86514     13.55015      2.30887        -1.004832     -1.224932      0.136539
Ti       1.84253     13.55496     15.24737         1.276920     -0.731642      0.960558
Ti      13.65362      1.86863      2.32421        -1.198915     -0.183129     -1.349470
Ti      13.48369      2.01598     15.39574         0.288654     -1.846105      1.753850
Ti      13.45191     13.56497      2.25956         1.121131     -0.383218     -0.733224
Ti      13.54585     13.53945     15.41341        -0.270158      0.042165      0.275071
Ti       1.94533      1.89833      6.60127        -0.777312     -0.289337     -0.319969
Ti       1.81785     13.48689      6.63911         0.525294      0.201912     -1.570599
Ti      13.55254      1.84551      6.60016        -0.208314     -0.319848     -0.575500
Ti      13.44931     13.44213      6.59590         1.136030      0.643641     -1.482905
Ti       1.96029      1.89130     11.01709        -0.509841     -0.148566     -0.849559
Ti       1.87932     13.45986     10.95425        -0.224522      0.592365     -0.778106
Ti      13.51289      1.88147     10.94441         0.059082     -0.113571      1.446940
Ti      13.52916     13.47640     11.12026        -0.203418     -0.004571     -0.835763
Ti       1.89325      5.79203      2.33433        -0.095666      0.519182     -1.215544
Ti       1.88841      5.85181     15.27731         1.206538     -0.776868     -0.860966
Ti      13.55456      5.86771      2.31094        -0.340562     -0.156508     -1.739296
Ti      13.48672      5.75743     15.33671        -0.098280      0.275124     -0.628363
Ti       1.94889      5.70618      6.70187        -0.714544      0.598249     -1.440347
Ti      13.48585      5.62841      6.63883         0.716508      0.551275     -0.362639
Ti       1.93439      5.80755     11.06755         0.885949     -0.647445     -0.828806
Ti      13.58759      5.77480     11.06804        -0.539116     -0.490407      0.515647
Ti       1.84425      9.63066      2.20253        -0.084291     -0.579260      0.118272
Ti       1.90703      9.57924     15.34429         0.609903      1.493238     -0.138344
Ti      13.43838      9.66724      2.35038         0.658820     -0.634795     -1.343191
Ti      13.52319      9.60235     15.42991        -0.230508      0.829755     -1.699011
Ti       1.91403      9.64343      6.72519        -0.326401     -0.094306     -0.318653
Ti      13.53744      9.64725      6.52214        -0.167879      0.205639      0.556015
Ti       1.92844      9.65894     11.01528        -0.247965     -0.240864     -0.328408
Ti      13.50252      9.70403     11.14273         0.372048      0.197107     -0.802443
Ti       5.79616      1.94610      2.43250         0.042307     -0.102679     -1.218832
Ti       5.68549      1.93172     15.46262         0.143480     -1.043679     -1.491555
Ti       5.70888     13.53549      2.34953         0.226752     -0.671432     -0.660446
Ti       5.75595     13.47048     15.35834        -0.638396      0.774888     -0.317243
Ti       5.83443      1.90213      6.69166        -0.008716      0.363974     -0.274356
Ti       5.74150     13.52476      6.65486         0.145826      0.157642      0.098716
Ti       5.72655      1.89576     10.97896         0.300148     -0.159673     -0.468662
Ti       5.72001     13.46299     11.01670        -0.209236      0.114487     -1.223550
Ti       5.81223      5.79030      2.29133        -0.620696     -0.616965      0.112538
Ti       5.81624      5.69796     15.32242        -1.241259      0.406333     -0.837503
Ti       5.81165      5.76984      6.80143        -0.412837      0.134223     -1.710543
Ti       5.83308      5.74370     10.99847        -0.828758      0.589679     -0.495738
Ti       5.65360      9.55163      2.36564         0.734254      0.696735     -1.421829
Ti       5.89206      9.61935     15.25376        -1.162487      1.242973      0.935103
Ti       5.86619      9.66990      6.67713        -0.838598     -0.528772      0.926830
Ti       5.81917      9.62886     10.98169        -0.526958     -0.168567     -0.267103
Ti       9.72911      1.88635      2.37031        -0.951043      0.293121     -1.274029
Ti       9.54377      1.89830     15.37449        -0.048211      0.328008     -0.172974
Ti       9.62328     13.48330      2.26176         0.099642      0.435020     -0.496872
Ti       9.72826     13.49372     15.43006        -0.316676      0.497912      1.270062
Ti       9.68583      1.82464      6.59490        -0.729847      0.603580     -0.713488
Ti       9.69186     13.44441      6.75598        -0.902988      0.203386     -1.633880
Ti       9.53383      1.90772     11.03451         0.658016     -0.856017     -1.011899
Ti       9.61586     13.57471     10.92200         1.256799      0.222067     -1.578240
Ti       9.68333      5.78084      2.31168         1.012604     -0.125091      0.560891
Ti       9.65655      5.74189     15.33064         0.476210     -0.091713     -1.058810
Ti       9.61163      5.77813      6.64101         0.032595     -0.552792      0.440728
Ti       9.69967      5.75457     11.09053         0.115937      1.085841     -1.450547
Ti       9.59412      9.62750      2.24825         0.136554     -0.018285      0.154274
Ti       9.67415      9.61873     15.29944        -0.510404     -0.053172     -0.078634
Ti       9.68409      9.65934      6.70675         0.498687      0.418437     -1.338319
Ti       9.63976      9.78727     11.03046         0.206677     -1.621194     -0.056861
O       1.95217      1.79261      0.56922         0.217756      0.434116      0.721467
O       1.97655      1.96753     13.55868        -0.191608     -0.331445      0.059213
O       1.85270     13.56580      0.51523         0.312787     -0.210258      0.769813
O       1.83895     13.45093     13.48154         0.215460      0.251273      0.216966
O      13.53096      1.87290      0.52337         0.097102      0.231862      0.686401
O      13.66202      1.84344     13.73015        -0.027870      0.199696     -1.999628
O      13.57047     13.58921      0.44421        -0.337510     -0.269729      1.066346
O      13.64208     13.44195     13.62464        -0.374886      0.421900     -0.078616
O       1.85792      1.87734      4.82458         0.094142      0.209097      0.019894
O       1.72533     13.42613      4.77884         0.669042      0.004703      1.224992
O      13.51580      1.74797      4.80516         0.047183      0.576896      0.088156
O      13.45854     13.48235      4.79533         0.018390     -0.249394      1.225114
O       2.07017      1.71276      9.20175        -0.606023      0.799646      0.896022
O       1.66875     13.55463      9.12325         0.883599     -0.374247      0.870383
O      13.59640      1.71201      9.24027        -0.411244      0.364448     -1.323069
O      13.64914     13.42781      9.34964        -0.306135      0.140651     -0.347941
O       1.95766      5.78837      0.49348        -0.279981      0.008869      1.124900
O       1.89511      5.85016     13.47502         0.087830     -0.170151      0.723874
O      13.59566      5.79615      0.42877        -0.202662      0.255609      1.372846
O      13.53399      5.55083     13.56762         0.321461      0.595270      0.342948
O       1.88619      5.74364      4.81076        -0.079156     -0.214399      1.529328
O      13.65481      5.69170      4.85385        -0.580687     -0.009591      0.582042
O       1.96389      5.72134      9.25501        -0.407218      0.116519     -0.256996
O      13.53473      5.79902      9.33589         0.205813      0.075581     -0.490951
O       1.91667      9.56666      0.42042        -0.061518      0.149930      0.384287
O       1.80308      9.64922     13.58436         0.331945     -0.088622     -0.086511
O      13.44106      9.49893      0.48614        -0.258112      0.319325      0.769801
O      13.50558      9.75900     13.57831         0.065217     -0.153290      1.153440
O       1.91122      9.67787      4.97102        -0.130550     -0.142054     -0.505688
O      13.45510      9.60078      4.76416         0.215216      0.026594     -0.208856
O       1.93865      9.58050      9.23688        -0.320075      0.283042     -0.208136
O      13.37194      9.61668      9.34207         0.467472      0.109325      0.272342
O       5.71905      1.97917      0.66511         0.180756     -0.314579      0.077541
O       5.68323      1.98490     13.65876        -0.094362      0.043789      0.331483
O       5.52613     13.55408      0.59092         0.697634     -0.188388      0.639041
O       5.79128     13.45203     13.54465         0.138363     -0.210138     -0.036690
O       5.79298      1.97659      4.92244         0.062482     -0.274602      0.223613
O       5.69604     13.63126      4.89369         0.486304     -0.366549     -0.302773
O       5.77479      1.97510      9.17753        -0.451953     -0.087967      0.822241
O       5.77902     13.47543      9.26677        -0.246379     -0.181913      0.009132
O       5.68834      5.78285      0.54257         0.440900      0.251841     -0.108176
O       5.77761      5.74518     13.51190         0.269495     -0.060484      1.194837
O       5.78555      5.77784      4.98639         0.080896      0.039660     -0.043805
O       5.77806      5.79812      9.17812         0.010317     -0.170202      0.728847
O       5.72822      9.44259      0.58133        -0.000668      0.325593      0.897625
O       5.80450      9.69124     13.53174         0.369720     -0.135281     -0.907831
O       5.76307      9.54889      4.96159         0.057709      0.135026     -1.263277
O       5.72109      9.65063      9.21021         0.445439     -0.094660     -0.349911
O       9.64001      1.94829      0.55268        -0.112403     -0.199045      0.663504
O       9.44987      1.81920     13.65640         0.185733      0.185486     -1.021283
O       9.63162     13.57425      0.46464        -0.134722     -0.212615      0.606799
O       9.74236     13.49669     13.72726        -0.581445     -0.094054     -2.222800
O       9.69078      1.91364      4.80808        -0.101555     -0.282175      0.339172
O       9.59339     13.39789      4.94081         0.218197     -0.101924      0.738942
O       9.61777      1.95862      9.25175        -0.060124     -0.073645      0.348539
O       9.68972     13.59492      9.08280        -0.072688     -0.317566      1.405728
O       9.92793      5.73201      0.61402        -0.729626      0.240767     -1.331972
O       9.61393      5.74192     13.56725         0.069730     -0.021393     -0.296245
O       9.53144      5.84480      4.89506         0.303149     -0.074895     -0.125382
O       9.64319      5.65114      9.29652         0.118285      0.103865      1.048216
O       9.73464      9.59479      0.48496        -0.110272     -0.006976     -0.194385
O       9.65743      9.73595     13.50817        -0.087503      0.076904      0.427583
O       9.73947      9.69274      4.91655        -0.433465     -0.185098      0.308710
O       9.68922      9.77598      9.28226         0.075912     -0.276972     -0.772587
O       3.80162      1.95203      2.80504         0.429695     -0.020292     -0.163161
O       3.79903      1.83778     15.83370        -0.196924      0.420337      0.094794
O       3.81679     13.51388      2.79982        -0.167300     -0.455605     -0.288541
O       3.83489     13.51311     15.75686        -0.696094     -0.248410     -0.283580
O      15.44764      1.73320      2.68150         0.656601      0.255182      0.137716
O       0.08151      1.93235     15.81245        -0.304667      0.394072     -0.359287
O      15.39585     13.43118      2.74757         0.266102      0.352155     -0.479149
O      15.46198     13.47744     15.73096         0.023688      0.364789     -0.196158
O       3.78407      1.98298      7.04595         0.989255     -0.303159     -0.127466
O       3.84504     13.49289      6.94156        -0.110825     -0.003157      0.384741
O      15.38775      1.91523      6.96923         0.589205     -0.221601      0.207818
O       0.01419     13.48954      7.00130        -1.444040      0.146107      0.127812
O       3.84572      1.91777     11.46925         0.347563      0.370093     -0.096033
O       3.75313     13.42160     11.35705         1.663574      0.085742      0.133052
O       0.00865      1.70281     11.33014         0.718657      0.861531      0.300789
O       0.02394     13.40742     11.36657        -0.220702      0.349374      0.636438
O       3.81472      5.73660      2.69233         0.045686     -0.275023     -0.056063
O       3.87246      5.93037     15.62064         0.477551      0.012765     -0.013351
O      15.39086      5.80496      2.66141         0.917422      0.097700      0.242938
O       0.02195      5.78352     15.64706        -0.077200     -0.176085      0.113356
O       3.80942      5.67307      6.98174        -0.457391      0.068242      0.330492
O      15.38460      5.69546      7.10336         0.448736      0.318570      0.183079
O       3.87941      5.76583     11.39889         0.613101      0.047329      0.113664
O       0.06315      5.69545     11.46017        -1.280845      0.426956     -0.084667
O       3.72873      9.54109      2.77306         0.639924      0.398097     -0.176241
O       3.90748      9.54967     15.66274        -0.805686      0.098955     -0.149598
O      15.42162      9.53622      2.67307         0.114373     -0.016489      0.044091
O      15.38178      9.67058     15.79562         0.895773     -0.093607     -0.258244
O       3.77533      9.62346      7.09795         1.263650      0.641541     -0.049629
O      15.40835      9.56870      7.01412         0.115206      0.371607      0.130447
O       3.86769      9.61419     11.28849        -0.034015     -0.180002      0.774075
O       0.00043      9.78306     11.42071         0.086102     -0.357630     -0.106047
O       7.69818      1.99358      2.81429         0.097089     -0.799161     -0.314671
O       7.62281      1.99010     15.80574         0.190341      0.105894      0.509562
O       7.67354     13.43316      2.61860        -0.327904     -0.032546      0.143773
O       7.60245     13.39131     15.83071         0.750949      0.493305     -0.190068
O       7.71586      1.82637      7.08218         0.042842      0.318885     -0.326340
O       7.70836     13.52205      7.11787         0.043084     -0.084144     -0.186542
O       7.57827      1.85358     11.43404         0.879224     -0.147746     -0.093316
O       7.73508     13.62713     11.24896        -0.365766     -0.626390      0.695689
O       7.76170      5.85045      2.58552        -0.770346     -0.034084      0.146763
O       7.72446      5.69334     15.72069        -0.434879      0.273059      0.288881
O       7.66718      5.79900      7.08509         1.338640      0.469803      0.135739
O       7.73245      5.75562     11.40349         0.505885     -0.012125      0.005424
O       7.68461      9.63470      2.66168        -0.128441     -0.391694      0.234368
O       7.78887      9.77965     15.70356        -0.356973     -0.230466      0.043066
O       7.76621      9.56331      7.08662        -0.705395      0.022392     -0.134648
O       7.73071      9.59267     11.37436         0.291375      0.378333      0.161506
O      11.59581      1.80351      2.63307         0.081756      0.641393      0.184830
O      11.53351      1.98830     15.64011         0.518497     -0.225440      0.266157
O      11.58618     13.46379      2.64782        -0.889975     -0.015806     -0.144286
O      11.60011     13.60907     15.71471         0.065475     -0.284513      0.116086
O      11.53531      1.92931      6.97428         0.397287     -0.271203      0.385546
O      11.63586     13.37486      7.04788        -0.632582      0.316618      0.193013
O      11.61087      1.85759     11.33226        -0.265487      0.116361      0.399655
O      11.52771     13.58079     11.26051         0.269446      0.064495      0.687321
O      11.60747      5.64887      2.71898         0.152898      0.897685      0.037962
O      11.61990      5.81930     15.65326        -0.284710     -0.258755      0.210435
O      11.58559      5.73308      7.11597        -0.342139      0.091265     -0.692166
O      11.68307      5.72986     11.50412        -1.054693      0.070792     -0.270369
O      11.55777      9.61927      2.75048        -0.129263      0.034498     -0.176470
O      11.54261      9.72422     15.66602         0.351767     -0.575349      0.251291
O      11.62966      9.66667      6.94219        -0.218598      0.049437      0.527869
O      11.60706      9.64352     11.51865        -0.762220      0.322782     -0.041619
O       1.69012      3.80523      2.57026         0.867907      0.248531      0.336077
O       2.10680      3.93575     15.64649        -0.680327     -0.543131      0.274699
O       1.93152     15.34002      2.72556         0.016291      1.353064     -0.047377
O       1.93943     15.42164     15.74647        -0.372831      0.114302     -0.735159
O      13.57154      3.82510      2.64090         0.079323     -0.362306      0.200845
O      13.57898      3.86129     15.79942        -0.026700      0.339829     -0.127710
O      13.45075     15.39492      2.68246         0.219299      0.338791     -0.063453
O      13.50253      0.00481     15.81945         0.362380      0.094099     -0.536324
O       1.80854      3.78628      7.09051         0.324941      0.810491     -0.070593
O       1.89926     15.43285      6.93532         0.135985      0.295996      0.184725
O      13.43828      3.76862      6.97512         0.188942      0.505448      0.097184
O      13.42952     15.41795      6.95799         0.113133     -0.415114      0.422750
O       1.94881      3.87327     11.33700        -0.255158     -1.331888      0.171229
O       2.08147     15.40912     11.33849        -0.604988     -0.071454      0.367640
O      13.54410      3.78177     11.43522         0.466503      0.146376     -0.264210
O      13.52016     15.44267     11.50703         0.207058     -0.665290      0.185501
O       1.91600      7.69700      2.70875        -0.302688     -0.490513      0.118673
O       1.88940      7.73136     15.62784        -0.318535     -0.255530      0.209829
O      13.44989      7.68731      2.70693        -0.185685     -0.234461      0.182000
O      13.62554      7.72815     15.56895        -0.494296     -0.698518      0.210735
O       1.94511      7.74371      6.99075        -0.384097     -1.727476      0.251744
O      13.50121      7.74420      7.00262        -0.109270     -0.698520     -0.018386
O       1.94230      7.66488     11.43033        -0.322918      1.101560      0.068982
O      13.57538      7.77600     11.55340         0.078741     -1.171014     -0.351207
O       1.79304     11.48849      2.64127         0.804866      0.440867     -0.039255
O       1.82173     11.58116     15.71055         0.584450     -0.091576     -0.035899
O      13.49718     11.50534      2.58994        -0.080905      0.481439      0.091024
O      13.48379     11.59057     15.77885         0.019539      0.089824      0.165597
O       1.89690     11.62164      6.99898        -0.051106     -0.865769      0.566823
O      13.54831     11.55940      7.03352         0.203692     -0.293506      0.003515
O       2.05692     11.55759     11.33351        -0.694232     -0.153647     -0.136092
O      13.41371     11.60258     11.47126         0.124777      0.130471      0.224700
O       5.82658      3.84342      2.67588        -0.414101      1.226384      0.369312
O       5.64549      3.85349     15.83412         0.233032      0.892417     -0.122677
O       5.78213     15.46283      2.85396        -0.331777     -0.387508     -0.678255
O       5.75130     15.46215     15.59759         0.338954     -0.628795      0.697133
O       5.84194      3.88115      7.12174        -0.275625     -0.922122      0.047244
O       5.83557     15.44428      7.13757        -0.791299      0.212268     -0.517270
O       5.89177      3.83236     11.45612        -0.882105      0.136692     -0.602035
O       5.64437     15.40455     11.29312         0.160809      0.270507      0.579538
O       5.65558      7.64004      2.76844         0.591364      0.113772      0.186796
O       5.97690      7.77474     15.73282        -0.608705     -1.268383     -0.610196
O       5.66835      7.73469      7.01697         0.461379     -0.102284      0.542109
O       5.84168      7.69981     11.37753        -0.099294     -0.509424      0.160083
O       5.67473     11.46006      2.74577        -0.005762      0.760764     -0.060932
O       5.65352     11.52821     15.76338         0.519349      0.145104      0.055821
O       5.89985     11.60453      6.97954        -0.537673     -0.691158      0.107778
O       5.85248     11.50013     11.33903        -0.050639      1.291769      0.558090
O       9.64529      3.81471      2.68639         0.100725      0.528333      0.141268
O       9.61982      3.85576     15.65476         0.161729      0.282831      0.654835
O       9.57557     15.38949      2.68840        -0.001808      0.186552      0.007570
O       9.54729      0.02575     15.68295        -0.060985     -0.878178      0.765843
O       9.53885      3.79781      7.04927         0.340596      0.702027     -0.147281
O       9.68959     15.40224      6.99049         0.180697      0.240123      0.150220
O       9.64302      3.71044     11.51541        -0.062691      1.758385     -0.115790
O       9.67169      0.04282     11.35649        -0.332477     -1.092574      0.461476
O       9.72208      7.76344      2.66735        -0.134801     -1.015254      0.292298
O       9.61093      7.68028     15.61439        -0.024621      0.626333      0.450284
O       9.71353      7.71586      6.99890        -0.280548     -0.583343      0.377032
O       9.67296      7.74185     11.28651         0.160347     -1.092475      0.600967
O       9.65753     11.54860      2.57333        -0.166576      0.272916      0.306599
O       9.68291     11.61490     15.76885         0.024445     -0.557196      0.072293
O       9.55680     11.53400      7.08799         0.389226      0.090423      0.190267
O       9.67087     11.62195     11.35194        -0.336666      1.018868      0.475516
