  # total energy = -7848.21381753 
CRSYTAL
PRIMVEC
    15.6080000000000005    0.0000000000000000    0.0000000000000000
     0.0000000000000000   15.6080000000000005    0.0000000000000000
     0.0000000000000000    0.0000000000000000   16.6239999999999988
PRESSURE
2.07793 0.896779 -3.8909 0.062007 -0.047206 -0.143194
PRIMCOORD
320 1
Pb       3.84367      4.09606      4.19573        -0.524852      0.056513     -0.785191
Pb       3.85713      4.08668      0.18282         0.133587     -0.470795      0.290089
Pb       3.94289      0.11300      4.38603        -0.815799     -0.189871     -0.422570
Pb       3.77337     15.41628     16.48642         1.050381     -0.326566      1.058689
Pb       0.04309      4.00592      4.24282         1.208598     -0.050080     -0.529759
Pb       0.05350      3.77350     16.62333         0.234697     -0.030085      0.634955
Pb      15.56815     15.49415      4.46011        -0.428126      0.713220     -1.105304
Pb       0.30650     15.42245     16.59571        -1.394701      0.225551      1.576411
Pb       3.90832      3.71796      8.32895        -0.095138      0.443359     -0.513189
Pb       3.83584     15.60312      8.22980        -0.515857     -0.073874      0.136029
Pb      15.41418      4.09459      8.17571         1.078730     -1.297974      0.579061
Pb      15.45643      0.20677      8.18700        -0.030382     -0.370619      0.683326
Pb       4.11341      3.86277     12.40355        -0.137781      0.531668     -0.048162
Pb       3.85229     15.54259     12.37898        -0.210229      0.299588      0.388646
Pb      15.59198      3.64023     12.57277        -0.214673      1.133688      0.103928
Pb       0.09682      0.13003     12.34678        -0.939177     -0.040609      0.660645
Pb       3.68219      7.86724      4.27265         0.509618     -0.686228      0.592569
Pb       3.62182      8.04208      0.12659         0.788157      0.332902     -0.847901
Pb      15.47349      7.98055      4.10935         0.772312     -0.673174      1.192646
Pb       0.03588      7.90287      0.19061         0.234718      0.788967     -0.061752
Pb       3.74061      7.92530      8.50735         0.931094     -0.321339      0.315514
Pb      15.60644      7.51647      8.42701         0.367197      0.433096      0.729785
Pb       3.88912      7.80876     12.62910        -0.238113     -0.845302     -0.013953
Pb       0.23034      7.51479     12.75352        -0.750996     -0.051135      0.269314
Pb       3.92851     11.71581      4.20876         0.373964      0.259697      0.040808
Pb       3.81537     11.74324     16.53810         0.292099     -0.044070      0.115157
Pb      15.48964     11.62332      4.59949        -0.926633      0.333320     -0.348322
Pb       0.06743     11.80190      0.03601        -0.988484     -0.206304      0.115791
Pb       3.96991     11.70388      8.65249        -0.992610     -0.649743     -0.247461
Pb      15.54279     11.25813      8.33609        -0.595225      0.327750      0.792793
Pb       3.55841     11.82137     12.44490         0.313292     -0.010520      0.323420
Pb      15.49422     11.70661     12.39144        -0.016451      0.499628      0.563461
Pb       7.71712      4.13693      4.29540        -0.233952     -0.575143     -0.884398
Pb       7.85775      3.64552      0.04301        -0.674045      0.392361      0.513148
Pb       7.60922      0.15993      4.01170         1.557457     -0.234775      0.279175
Pb       7.75565      0.23057      0.09345         0.039798     -0.664643      0.508396
Pb       7.92972      3.93415      8.66391        -0.571749     -0.732620     -0.392798
Pb       7.79229      0.22746      8.31274         0.849563      0.381787      0.101890
Pb       7.96166      3.72339     12.65614        -1.464106      0.204697     -0.809571
Pb       7.63820     15.31653     12.59760         0.324305      0.953458      0.143257
Pb       7.80185      7.72559      3.92075        -0.488307     -0.609723      1.535152
Pb       7.88818      7.94392     16.36072        -1.061958     -1.221947      1.415510
Pb       7.91906      7.70372      8.28447        -0.670908     -0.548093     -0.589643
Pb       7.61283      7.68821     12.70339         0.183619     -0.721447     -0.289808
Pb       7.60138     11.91734      4.28038         0.352926     -0.936330     -0.620793
Pb       7.56389     11.31898     16.60834         1.335322      1.591495     -0.247709
Pb       7.50752     11.90931      8.57540         1.612829     -1.436989     -0.224038
Pb       7.96464     12.02024     12.68920        -0.365371     -1.435169      0.751298
Pb      12.03350      4.03216      4.04115        -0.495748      0.065505     -0.666414
Pb      11.93938      3.78917      0.10152        -0.453736      0.700389     -0.291408
Pb      11.77492     15.56715      4.00224         0.022616     -0.406403      0.150105
Pb      11.99821     15.54318      0.20214        -0.127123     -0.834454      0.154824
Pb      11.58750      3.96913      8.33192         0.249168     -0.333076      0.398835
Pb      11.39138      0.19364      8.16662         0.872007     -0.796312      1.236835
Pb      11.78676      3.89685     12.69405         1.268753      0.725381     -0.450501
Pb      11.71695      0.04092     12.20887         0.269830     -1.081062     -0.366190
Pb      11.68859      7.74029      4.09220        -0.539841     -0.637924     -0.313670
Pb      11.86709      7.72899     16.52503        -1.889164     -0.105007      1.219908
Pb      11.51937      7.81435      8.27090        -0.072848     -0.696575      0.779650
Pb      11.73242      7.78499     12.36870        -0.255128     -0.907182      0.471446
Pb      11.63138     11.73339      4.35541        -0.710463     -0.019737     -0.627907
Pb      11.72237     11.65969      0.21050        -0.950988      0.564870     -0.355300
Pb      11.78820     11.14692      8.16559        -0.601428      1.843887      1.399322
Pb      11.43423     11.56555     12.22045         0.790274      0.932154      0.378607
Ti       1.92568      1.88482      2.15667        -0.951149      0.796182      1.547577
Ti       2.17329      1.93303     14.72630        -2.908024      0.683908     -0.684181
Ti       1.89609     13.49960      2.40254         0.934007      2.214852     -1.614969
Ti       1.74721     13.68461     14.63797         0.867550     -0.709226     -1.259855
Ti      13.63000      1.90270      1.93893         3.736149     -0.570982      0.493617
Ti      13.84745      1.81735     14.54579        -0.882445      0.932978      1.365681
Ti      13.70705     13.47622      2.11934         0.586272      3.623255     -0.560710
Ti      13.47918     13.68094     14.25223         0.631112     -0.869840      0.094071
Ti       2.03912      1.94724      6.24743        -0.753724      1.289209     -0.221519
Ti       1.84424     13.63854      6.39887         1.672081      0.696330      0.941185
Ti      13.66674      1.91050      6.12536        -0.250094      0.733498      0.527944
Ti      13.36210     13.71743      6.49685         1.139893      0.173934     -0.449661
Ti       1.87700      1.96334     10.38523         0.224240      1.538091     -2.196334
Ti       1.69432     13.80841     10.45389         2.664573     -1.499798     -1.851960
Ti      13.56116      1.99504     10.32236         0.262226      0.284472      0.303417
Ti      13.74751     13.50485     10.26543        -2.736100     -0.109403     -1.228111
Ti       1.87524      6.03417      2.28792        -0.003220     -2.484263      1.185242
Ti       1.91002      5.79658     14.94235         2.173765      0.331681     -0.162649
Ti      13.81995      5.96572      2.24086        -0.625710     -1.424252     -0.366003
Ti      13.79359      6.01454     14.96307        -0.797949     -2.342601     -1.685385
Ti       2.03828      6.03705      6.53631        -0.445333     -1.164589     -0.519107
Ti      13.78150      5.88659      6.36414        -0.170540     -3.079628     -0.291013
Ti       1.93520      5.76245     10.58881         0.203293      1.730784      1.189642
Ti      13.70922      5.87549     10.70007         0.065245     -2.114574      1.418892
Ti       1.88661      9.95920      2.36805        -0.895695      0.199625     -1.500216
Ti       1.76188      9.79334     14.69227         0.968588     -1.294037      0.787151
Ti      13.47776      9.76373      2.18816         1.206585      0.193541      0.379175
Ti      13.48596      9.80834     14.84713         1.317058      0.679664     -0.557306
Ti       2.02905      9.89139      6.38420         0.146097     -1.951004      0.271537
Ti      13.65185      9.47662      6.33340         0.539403      0.421120      1.013915
Ti       1.93734      9.57717     10.78404         1.273804     -0.510741     -0.635690
Ti      13.71253      9.62106     10.77387        -0.631255      0.759761     -1.796127
Ti       5.68334      1.82402      2.18661         0.106362      1.462369     -0.611532
Ti       5.86674      1.91709     14.63538        -0.978908     -0.047031      0.345261
Ti       5.84406     13.61608      2.33827        -1.854836      0.006903     -1.350850
Ti       5.74050     13.54384     14.77907        -0.792112     -0.021557      1.594058
Ti       5.88535      1.84961      6.30492         0.596085      2.328898      1.314571
Ti       5.74866     13.57209      6.50321        -0.179287      0.325593     -0.577922
Ti       5.76686      1.90060     10.27759         2.199547      1.077423     -0.306965
Ti       5.69719     13.59791     10.67676        -0.353517      0.979558     -1.919470
Ti       5.79892      5.83313      2.04170         0.427450     -1.063073     -1.017101
Ti       5.78943      5.76683     14.60314        -0.046177     -0.303987      0.698390
Ti       5.98890      5.77625      6.24647        -0.660002      0.495767     -0.202853
Ti       5.71707      5.84617     10.35587         0.418641     -0.613226      2.287656
Ti       5.84660      9.68484      2.23532         0.025417      0.249841     -0.308543
Ti       5.75964      9.63134     14.46301        -1.066283      1.083096      1.167099
Ti       5.86261      9.63017      6.23838         0.470148     -1.595472     -0.515735
Ti       5.87409      9.68484     10.54085        -1.707267     -1.677787     -1.050525
Ti       9.83339      1.94638      2.33016        -1.346588      0.037306      0.139395
Ti       9.99275      1.90055     14.64504        -0.735098     -0.577366      1.372156
Ti       9.77091     13.69380      2.07018        -0.066436     -0.576861     -0.717656
Ti       9.81981     13.78814     14.65811        -0.239762     -1.925065      0.546149
Ti       9.78001      1.91907      6.33799        -1.109802     -0.756780     -0.507022
Ti       9.61466     13.49482      6.13491         0.883945      1.240193      1.044590
Ti       9.74306      1.88055     10.76524        -1.034134     -0.197480     -3.474629
Ti       9.63796     13.57594     10.42450         1.325661      1.285350     -1.589871
Ti       9.71542      5.83604      2.05591         0.790142     -0.701530      0.130635
Ti       9.72578      5.66690     14.60504         0.572117      3.013002      0.463351
Ti       9.89653      5.56233      6.12650        -1.352846      3.408760      0.689916
Ti       9.66155      5.83494     10.59981         0.246207     -0.587201     -0.960587
Ti       9.67064      9.66847      2.34525         0.201989      1.792276     -2.198457
Ti       9.75279      9.54597     14.49645        -1.356117      1.044411      0.037491
Ti       9.65326      9.50641      6.23628         1.450227      1.150394     -0.780872
Ti       9.57869      9.62408     10.50707         0.971357      0.166291     -0.891583
O       1.95828      1.79913      0.36879         0.034417     -0.085298     -1.922875
O       1.83215      2.05146     12.91141         0.565895     -0.357335     -1.224111
O       1.66839     13.43778      0.02952         0.962090      1.132165     -1.233804
O       1.88085     13.69366     12.68217        -0.221124     -0.952416     -0.043711
O      13.36663      1.85617      0.01172         1.282772      0.431365      1.028560
O      13.62421      2.05838     12.75846         0.359993      0.028509     -0.574006
O      13.97441     13.69211      0.27124        -1.493492     -0.357226      0.460491
O      13.62224     13.26514     12.41430        -0.520472      0.185694      1.553788
O       2.10681      1.77562      4.40774         0.315745      0.487396      0.329788
O       2.05794     13.33892      4.23188        -0.091325      0.011313      1.211461
O      13.60797      1.88333      4.34716         0.359195      0.028635      0.468238
O      13.69609     13.87135      4.38211        -0.401841     -0.796416      0.271610
O       1.98918      1.99425      8.43318         0.159681     -0.840229      2.548577
O       1.89067     14.05265      8.55351        -0.348055     -1.087903     -0.004961
O      13.61051      2.07974      8.54734         0.129494     -0.253581     -0.752662
O      13.93481     13.93575      8.39466        -0.398360     -1.218809      1.189054
O       1.72252      5.61774      0.32319         1.133243      1.444904     -1.705898
O       1.84806      6.04439     12.55947         0.253085     -1.240058     -0.410396
O      13.92309      6.05264      0.21179        -0.473130      0.088029     -1.417970
O      13.78057      5.75691     12.58376        -0.107335      0.647369     -0.621151
O       1.71973      5.67985      4.20629         0.701350      0.366593      0.043368
O      13.85204      5.96205      4.11947         0.115474     -0.965263      0.904033
O       2.09418      5.89614      8.46156        -0.149678      0.470175     -1.496964
O      13.87616      5.79833      8.20220        -1.309140      1.059469      0.787171
O       1.89922      9.64629      0.18201         0.286917     -0.418481     -0.577187
O       1.98403      9.62117     12.65263        -0.453293      0.314512     -0.598860
O      13.54980      9.63683      0.06626        -0.043783      0.187612      1.112733
O      13.46340      9.76412     12.56657         0.724345      0.854842     -0.069805
O       1.90934     10.11199      4.32704         0.028826     -0.187956     -0.710306
O      13.77953      9.82309      4.15967        -0.767100     -0.051305      0.834661
O       2.09225      9.49100      8.16611        -0.537310      0.450725      0.776244
O      13.79495      9.48679      8.35436        -0.525213     -0.194223     -1.923981
O       5.71366      1.95580      0.43044         0.411818     -0.142738     -1.611223
O       5.77611      2.06421     12.85626         0.475852     -0.235953     -0.412012
O       5.69262     13.41480     16.62170         0.990606      0.475982      0.110581
O       5.61060     13.51011     12.40343        -0.011334      0.052931      2.271818
O       5.87623      1.84651      4.52116        -0.383838     -0.015751     -2.011361
O       5.51610     13.47283      4.24887         1.628084      0.547368     -0.028332
O       6.01434      2.08643      8.42921        -0.723885     -1.461770      1.380121
O       5.79810     13.32084      8.48173        -0.645247      1.644780     -1.228995
O       5.88024      5.99679      0.16639        -0.761394     -0.939899      1.972069
O       5.89757      5.57824     12.78856         0.046566      0.037979      0.147633
O       6.03682      5.77084      4.37476        -1.148203     -0.519879      0.367866
O       5.92258      5.82957      8.63170        -0.311523     -0.009590     -1.575971
O       6.10826      9.70316      0.14725        -1.374976     -0.880238      2.269880
O       5.53347      9.84015     12.71841         1.212636     -0.607690     -1.404598
O       5.94038      9.58184      4.35335        -0.414404      0.426288     -0.253758
O       5.70200      9.50286      8.66160         0.256242      0.322444     -0.340644
O       9.77724      2.18374      0.18852         0.413958     -0.728987     -0.638797
O       9.78227      1.66755     12.51953        -0.308084      0.512748      3.712823
O       9.83302     13.79889      0.18888        -0.501706     -0.865598     -0.614373
O       9.65573     13.87796     12.72038        -0.378089     -0.733121     -0.266601
O       9.64707      1.54164      4.25868         0.522841      1.356401      0.589057
O       9.96060     13.72019      4.35858        -0.298295     -0.935415      0.958440
O       9.83376      1.89017      8.43567        -0.262338      0.469835     -0.886874
O       9.61495     13.39938      8.66669        -0.681646      0.593513     -0.095461
O      10.06645      5.84724      0.27269        -1.786070     -0.793854      0.790048
O      10.06978      5.98604     12.79623        -0.915249     -0.835844     -0.485977
O       9.78617      5.86911      4.40516         0.142544     -0.309288     -1.016007
O       9.55571      5.60518      8.69092         1.356371      0.841980      0.684096
O       9.64309      9.65438      0.33298        -0.166493      0.360460      0.255218
O       9.75169      9.36923     12.60627         0.077491      0.944751      0.501296
O       9.97198      9.67179      4.32074         0.092553     -0.616038      1.795015
O       9.80548      9.56681      8.59555        -0.130920     -0.321131      0.452316
O       3.87868      1.80693      2.37816         0.581698     -0.275225      0.564812
O       3.89309      1.68165     14.86604         1.085669      0.366813      0.151197
O       4.02887     13.60720      1.94214         0.077006      0.285322      0.872883
O       3.71846     13.69642     14.74925        -0.286113     -0.276031     -0.351957
O      15.59291      2.08569      2.43546        -0.333180     -0.282677     -0.647152
O       0.03271      1.88053     14.93386        -1.167541      0.068375     -0.439556
O       0.11165     13.54312      2.08841        -0.431463     -1.245069      1.505605
O      15.25967     13.58129     14.57517         2.108409     -0.282071     -0.122004
O       4.01992      1.76421      6.73702        -1.093208      1.281919     -0.745665
O       3.93336     13.44072      6.35444        -0.187039     -0.352174      0.510134
O       0.15530      1.58722      6.35475        -1.053026      1.195871     -0.502894
O       0.13647     13.85879      6.22281        -0.906644     -0.522096      0.247110
O       3.94476      1.92392     10.62542        -1.894562     -0.292441     -0.076268
O       3.69490     13.93391     10.72347         0.815307     -1.118594     -0.883885
O       0.08827      2.03460     10.71618         0.116969      0.464903     -0.056652
O      15.53076     13.63462     10.89133         0.307724     -0.552295     -0.647788
O       3.72747      5.84541      2.35935         2.184189      0.743653     -0.298016
O       3.74001      5.77956     14.63023         1.694968     -0.311114      0.539323
O       0.07177      5.69213      2.15693        -1.886458     -0.157663      0.388851
O       0.19172      5.72809     14.61077        -4.136533      0.043809      0.133400
O       3.79509      6.08178      6.19943         1.203280     -0.578465     -0.302708
O       0.13116      5.85386      6.45815        -2.024377     -0.458007     -0.136771
O       3.88612      5.69156     10.90717         1.135264      0.652945     -0.929166
O       0.05531      5.87171     10.39626        -1.364702      0.345516     -0.189517
O       3.95606      9.53906      2.09201         0.935025     -0.242091      0.672593
O       3.80832      9.55434     14.70139         0.104943     -0.343394      1.013344
O       0.08189     10.18053      2.02284         0.426509     -0.522936      1.110650
O      15.52644      9.76176     14.80122        -0.205979      0.370538     -0.485073
O       4.02438      9.68971      6.26953        -2.038672      0.252953      0.009974
O      15.49309      9.79746      6.30127         0.274908      0.419439     -0.194258
O       3.91468      9.38566     10.73294        -1.295195      1.106131     -0.733737
O       0.11462      9.88212     10.60565        -0.891844     -0.671661      0.042922
O       7.85148      1.95125      2.05215         0.566681     -0.377887      0.743011
O       7.67292      1.84489     14.84316         1.938387      0.490971      0.233002
O       7.94341     13.97154      2.32012        -1.648904     -2.062802      0.366435
O       7.49625     13.66581     14.33739         2.227252      0.069777     -0.030959
O       7.86028      1.83427      6.46124        -0.483242     -0.764665      0.089676
O       7.71674     13.71370      6.20011         0.342187     -0.509754      0.351779
O       7.84508      2.03896     10.39770        -0.326656     -0.754872      0.774368
O       7.58699     13.50536     10.67184         1.057050      0.524840     -0.141938
O       7.82174      5.68190      2.41590         1.054728      0.015481     -0.848046
O       7.79317      5.86861     14.68351         0.928644     -1.216674     -0.229623
O       7.77581      5.90256      6.25531         1.373234     -0.932565      0.831606
O       7.79637      5.88476     10.66656         1.119219     -0.748722      0.770017
O       7.90159      9.97113      2.59475        -1.367313     -1.477108     -0.676818
O       7.68669      9.56068     14.57148         0.656564     -0.033815      0.151223
O       7.94276      9.41481      6.39338        -1.593598      0.258534      0.324253
O       7.74102      9.67110     10.48579         0.878196     -0.095204      0.671248
O      11.93499      1.65363      2.40328        -3.995222      1.596434     -0.282413
O      11.71413      2.17636     14.85651        -0.721899     -0.817427     -1.488095
O      11.78796     13.74471      2.03981         0.232042     -0.244340      0.559781
O      11.58904     13.45204     14.65261         0.071889      0.437482      0.188294
O      11.70771      1.97284      6.43175        -0.270333      0.115152     -0.234956
O      11.60076     13.63187      6.66327        -0.257894      0.047122     -0.554546
O      11.67489      1.75830     10.70251         1.589965      1.163428     -0.496953
O      11.82942     13.48587     10.57955        -0.177804      0.310292     -0.054123
O      11.85943      5.86823      2.40777        -0.642601      0.944078      0.048555
O      11.69365      6.06105     15.01826         1.408502     -1.141678     -1.382161
O      11.75015      5.60658      6.20989         1.101580      0.134018      0.673546
O      11.83894      5.82225     10.64410        -1.055454      0.072510     -0.406503
O      11.72221      9.46168      2.22518         0.573384      0.560870      0.196307
O      11.54725      9.35659     14.80349         1.405747      0.951577     -0.390770
O      11.65964      9.47255      6.55613         1.758997     -0.133348     -0.694289
O      11.67798     10.07207     10.50767         0.460741     -1.449230      0.271243
O       2.09093      3.79171      2.31939         0.061933     -0.546061      0.053806
O       1.96002      3.74436     15.04257         0.263336      0.676976     -0.000672
O       1.87433     15.44476      2.21175         0.413274     -0.597349      0.382153
O       1.70762     15.51606     14.56447         0.457523      0.069770      1.232243
O      13.53818      3.95389      1.93646         0.121422     -0.487364      0.737397
O      13.64432      4.02522     14.64374         0.118313      0.125563      1.010379
O      13.70384      0.03811      2.08989         0.632615     -0.554947      0.031129
O      13.38313     15.59945     14.52338         0.268554     -0.934854     -0.027864
O       1.85851      3.86112      6.41559         0.892625     -0.345079     -0.217386
O       2.19885     15.60549      6.32595         0.360526     -2.384191      0.242253
O      13.73380      3.84861      6.41541         0.656520     -0.132525     -0.653602
O      13.73448      0.06180      6.52862        -0.698546     -0.087919     -0.518916
O       1.99478      4.08069     10.33461         0.029314     -5.963345      0.265896
O       1.70808      0.02668     10.73088         0.851626      1.394962     -0.068497
O      13.75250      3.92994     10.48850        -0.294902     -0.274038      0.246964
O      13.91173      0.17870     10.55593        -0.409578     -1.496801      0.523620
O       1.65114      7.85777      2.57104         1.080257      1.356591     -1.243822
O       1.81114      7.70425     14.65037         0.000693      0.675166      1.108685
O      14.00609      7.92304      2.23566        -0.371169     -0.041311     -0.546431
O      13.79818      7.85261     14.60163        -0.073020     -0.941579      0.582837
O       1.68610      7.85500      6.03863         1.218378      0.673064      0.393063
O      13.80954      7.62332      6.04274        -0.843057      3.324026      0.576655
O       2.00751      7.62170     10.37298        -0.330919      4.298513      0.254511
O      13.70856      7.77987     10.53725        -0.075707      1.554350     -0.002929
O       2.50878     11.67271      1.90916        -1.668512     -0.451469      1.724881
O       2.01995     11.59399     14.74001        -0.654018      0.794789     -0.762776
O      13.48864     11.72516      2.31284        -0.380594     -2.023858     -0.331142
O      13.44622     11.67439     15.03160        -0.250814     -0.531011     -1.224188
O       1.78165     11.69220      6.84176         0.733114      1.000765     -1.786247
O      13.58320     11.87021      6.53444         0.643185     -1.541195     -0.494191
O       2.11453     11.72116     10.37123        -0.081998     -0.445090      0.775097
O      13.81090     11.54181      9.92468        -0.035911      1.540615      1.978878
O       5.78096      3.93688      2.41861        -0.343702     -0.686929     -0.229041
O       5.87661      3.88863     15.09457        -0.463669     -0.893114     -0.556762
O       5.92166     15.48857      2.11010        -0.080118      1.062213      0.842203
O       5.76519     15.51499     14.85096         0.041186      0.689579     -0.149966
O       5.80094      3.81498      6.55724        -0.229518      0.583215     -0.720322
O       5.65072     15.53848      6.37048         0.782437     -1.923756      0.765764
O       5.80752      3.80621     10.59064        -0.023789      0.198306      0.209345
O       5.85591      0.02173     10.53710        -0.035804     -1.104158      0.313259
O       6.00906      7.56976      2.53326        -0.573282      3.080551     -0.902187
O       5.85463      7.64954     14.82263        -0.312212      1.090834     -1.201628
O       5.95346      7.63232      6.39362        -0.594495      2.101186      0.636792
O       5.83964      7.64027     10.81035         0.222840      1.046241      0.337132
O       6.00144     11.63630      2.37933        -0.419512     -0.770275     -0.311456
O       5.74163     11.58079     14.78915         0.219321      0.011514     -0.580052
O       6.11488     11.48910      6.35762        -0.167549      1.324147      0.297257
O       5.65870     11.50684     10.31040        -0.251955      2.158599      1.233482
O       9.95164      3.87331      2.61057         0.150706     -0.817020     -0.879798
O       9.72508      3.82625     14.37328        -0.242640     -0.901008      0.489817
O       9.80505     15.53357      2.30310         0.924646      1.768657     -0.424799
O       9.72343     15.60028     14.72388         0.119077      1.151957      0.280975
O       9.49236      3.85687      6.49246         0.860553     -1.935311     -0.119013
O       9.80064     15.49584      6.58814        -0.720501      0.044377     -0.270004
O       9.83293      3.73506     10.60040         0.053020      2.064483      0.857526
O       9.88478     15.60170     10.45133        -0.806070     -1.897010      0.073763
O       9.70011      7.73736      2.42351         0.210065     -0.530800     -0.167880
O       9.52461      7.62463     14.89325         1.019741      1.636783     -0.947868
O       9.86371      7.46761      6.71769        -0.115832      1.620183     -0.366618
O       9.87724      7.72133     10.67132        -0.090826      0.473488     -0.689625
O       9.88862     11.65570      2.51887         0.715792      0.685635     -0.453429
O       9.45945     11.57101     14.63793         0.638695     -0.227896     -0.348281
O       9.86270     11.53000      6.48821        -0.510039      0.471088     -1.147875
O       9.58623     11.74613     10.73907         0.049761     -1.645123      0.731535
