  # total energy = -7824.72650084 
CRSYTAL
PRIMVEC
    15.6080000000000005    0.0000000000000000    0.0000000000000000
     0.0000000000000000   15.6080000000000005    0.0000000000000000
     0.0000000000000000    0.0000000000000000   16.6239999999999988
PRESSURE
5.61467 5.03808 0.520946 0.189313 0.029594 0.285934
PRIMCOORD
320 1
Pb       4.33246      4.07192      4.29018        -0.596341     -0.121112      0.459724
Pb       4.14343      3.73754      0.09003        -0.887559      0.676898     -0.767077
Pb       4.34873      0.13870      4.27672        -1.249042     -0.939625      0.322172
Pb       3.89352      0.13890      0.59426        -1.040655     -0.744033     -2.165615
Pb       0.52707      4.06507      4.27455        -1.606005     -2.569833     -0.753526
Pb       0.09364      3.94331      0.39636        -0.030991     -2.035518     -1.923211
Pb      15.30764      0.01850      4.25726         2.071308      0.413340      0.757305
Pb       0.12705      0.04636      0.11911         0.433754      0.395753     -0.775908
Pb       4.01124      3.66538      8.23010        -0.223334      1.211064     -0.114270
Pb       3.95062      0.03068      8.92641        -0.441390     -0.960377     -1.581824
Pb      15.45438      3.75219      8.20956         0.328529      1.542284      0.524112
Pb      15.02983     15.42550      7.96652         1.462520      1.168551     -0.312357
Pb       3.70424      3.85034     12.25011        -0.660679      1.365631      0.821958
Pb       3.70208      0.51971     12.42957        -0.093247     -1.948236      0.184360
Pb       0.28145      3.82244     12.60125        -0.378681      0.504850      0.455904
Pb      15.14812     15.31651     11.88051         1.398763      0.682390      1.375169
Pb       3.88694      8.30160      4.19795        -0.349246     -1.256664     -0.469586
Pb       3.95364      8.00309      0.10951        -0.547864      0.356932     -0.438876
Pb       0.27139      7.61178      4.22290        -2.156383      1.571021     -1.883216
Pb       0.18466      8.23332     16.54203         0.212501     -0.425305      0.346109
Pb       4.21065      7.87402      9.00223        -0.580534     -0.745161     -1.557102
Pb       0.06164      7.78480      8.72482        -0.917652     -0.698584     -0.831086
Pb       3.75727      7.37613     12.98799         0.265960      1.046560     -1.669125
Pb       0.06916      7.45788     12.71678         0.103921     -0.528258     -0.907809
Pb       3.56841     12.16865      4.92784         0.933405     -1.002599     -2.749635
Pb       3.27940     12.05258      0.50663         1.255540     -1.706059     -3.443055
Pb       0.18855     11.62677      4.31841        -0.307142      0.326134      0.100465
Pb      15.38832     11.77624     16.31122         0.778780     -0.524243      1.267201
Pb       3.60849     11.49030      8.56207         1.452039      0.934396     -1.732594
Pb      15.31361     11.53352      8.21504         0.807566     -0.839173     -0.332338
Pb       4.37949     11.86440     12.69561        -1.525488     -0.265237     -1.371872
Pb      15.11151     11.90364     12.45678         1.659351     -1.015261      0.009961
Pb       8.03878      3.99292      3.61190         0.177744     -0.013360      1.166382
Pb       7.77444      3.93675     16.44263         0.941294      0.054111     -0.028187
Pb       8.47583     15.57900      4.12321        -2.248122     -0.216200      0.314021
Pb       7.59074     15.28576     16.58847        -0.049064      1.399355     -0.624770
Pb       7.48407      4.04264      8.05723         0.630813     -0.336767      0.796009
Pb       7.64772      0.01911      8.41262         0.066267      0.263561     -0.467892
Pb       7.96362      3.92601     12.49158         0.591523      0.395077      0.127921
Pb       8.14364      0.24177     12.96314        -0.524161     -0.071623     -1.245747
Pb       7.49923      7.88182      4.06461         1.184223     -0.219749     -0.411902
Pb       7.50418      7.90449      0.29226         1.548778      0.503991     -0.853537
Pb       7.72188      8.07978      8.33608         0.597596     -1.344995     -0.286298
Pb       7.61007      7.95679     12.71293        -0.642019     -0.922339     -0.309278
Pb       7.63915     11.88929      4.05471         0.140110      0.253588      1.214675
Pb       7.96420     12.04465      0.03192        -0.289258     -1.922549     -0.320046
Pb       7.60326     11.40285      8.06975        -0.435431      1.555349      0.072805
Pb       8.05177     11.47024     12.91391        -1.103372      1.411940     -0.773323
Pb      11.40182      3.64328      3.88867         0.904389      2.229729     -0.028694
Pb      11.95602      3.75117     16.54479         0.580981     -0.195551      0.595979
Pb      11.79544     15.16674      4.42351        -0.016360      0.024203     -0.737792
Pb      12.33404     15.60613      0.46784        -0.456559     -0.802445     -0.872464
Pb      11.58064      4.13039      8.68297         0.120057     -0.052481     -1.863694
Pb      11.61666      0.39886      8.12580        -0.420727     -0.963114     -0.178196
Pb      11.56304      3.31984     12.59690         0.983164      2.136036     -0.672466
Pb      11.46389     15.08280     12.16229         0.749670      0.969152      0.435370
Pb      11.07387      7.47771      4.25294         0.845140     -0.661487     -0.045884
Pb      12.15597      7.89899      0.09592        -1.954684     -1.162496     -0.258724
Pb      12.07876      7.45569      9.05707        -0.287412      1.888676     -2.157306
Pb      11.50300      7.60197     12.84307        -0.195557      0.945399     -2.121584
Pb      11.31422     11.38373      3.97827         1.278755      1.508110     -0.330502
Pb      11.93147     11.44275     16.25131        -0.716553     -0.206631      1.224882
Pb      11.04475     11.62163      8.29738         2.394414     -1.445670      0.349898
Pb      11.59925     11.50961     12.27088         0.728164      0.287606      0.181954
Ti       2.00095      2.09309      2.17108        -1.572788     -0.534295      0.445821
Ti       2.10553      1.99063     14.58642        -1.913550     -0.817904      1.528032
Ti       1.79424     13.72822      2.27860         1.853224      1.187836      1.797745
Ti       1.85479     13.66697     14.54140         1.492950      0.584387     -0.239683
Ti      13.51890      1.86632      2.45265         1.115186      1.075391     -2.144446
Ti      13.82518      1.82626     14.29762         1.027702      0.028638     -0.725667
Ti      13.82265     13.34279      2.40459        -2.199906     -0.592783     -1.379230
Ti      13.67652     13.73264     14.71108        -0.073632      1.160188     -0.454423
Ti       2.21879      1.94168      6.44196        -6.864773     -1.928302     -2.668700
Ti       1.66362     13.79730      6.52101         2.312075      2.353876     -0.950811
Ti      13.54557      2.36898      6.24309         0.477344      0.015245     -0.172500
Ti      13.42949     13.24350      6.19099         0.901696      0.580425     -1.221662
Ti       1.67803      1.68459     10.29164         0.605576      1.126940      0.221978
Ti       1.96844     13.38686     10.34176        -2.179749      1.347097     -0.035862
Ti      13.47055      1.87392     10.21625         0.101508      0.075097      0.872239
Ti      13.58561     13.34289      9.94937        -1.001346      1.338589     -0.133579
Ti       2.14073      5.92745      2.06042        -1.122677     -0.276763      0.031484
Ti       1.88757      5.85736     14.89345         0.170692     -1.379991     -2.067726
Ti      13.85538      5.66326      1.87930        -0.997152      1.039493      0.938173
Ti      13.70227      5.62827     14.52353         0.644480     -1.012474     -0.783666
Ti       1.73480      5.84901      6.12629         1.527848     -0.340220      1.984572
Ti      13.45186      6.03761      6.00443        -0.734889     -4.752402      2.564145
Ti       1.87016      5.82732     10.32772         1.583659     -1.462329      0.242084
Ti      13.59425      5.44505     10.63305         3.652372      2.096115      1.190882
Ti       1.86656      9.84294      2.26359         0.124695      0.154529      0.096055
Ti       1.93373      9.84345     14.18413         0.501983     -0.971617     -0.227632
Ti      13.77921      9.43844      2.33220        -0.828566      0.055852     -0.650628
Ti      13.69984      9.46016     14.31672         0.160061      1.875724     -1.464349
Ti       1.77403      9.57016      6.42251         2.201231      0.934243     -1.379368
Ti      13.45136      9.53131      6.14349        -0.019465      0.172725      1.391723
Ti       2.19232      9.57359     10.42713        -4.135290      0.751351      1.807090
Ti      13.80196      9.69370     10.35265        -0.026928     -2.150854     -0.060184
Ti       5.72655      1.95971      2.11552         2.787727      0.050208      0.907661
Ti       5.90263      2.13975     14.31477         0.314774      0.586349      1.360770
Ti       5.78169     13.69239      2.05690        -0.065835     -0.351434      1.532691
Ti       5.63629     13.99786     14.34185         0.828768     -1.252538     -1.372072
Ti       6.02074      1.82041      6.26054         1.137218      1.035944     -1.019875
Ti       5.81677     13.82034      6.26243         0.805254     -1.242811     -0.199876
Ti       5.82608      2.14778     10.41012         2.208143     -1.797417     -0.540950
Ti       6.02590     13.65384     10.21519        -0.217589      1.797108     -0.099378
Ti       5.91640      5.84014      1.98709        -0.198364      1.075871      0.853380
Ti       5.96619      5.87857     14.50605         0.290910      0.172225     -0.935762
Ti       5.63224      6.15819      6.14243         1.033052     -2.929390     -0.599181
Ti       5.67315      5.85072     10.51661         0.773136      1.348357      0.643225
Ti       5.64944     10.07041      2.00853         0.687498     -1.934443     -0.133395
Ti       5.73723      9.93363     14.68894        -0.522948     -0.217736     -0.863461
Ti       5.68455      9.78447      6.07584         1.028177      1.591125     -0.688885
Ti       5.97098      9.98588     10.39054        -0.182185     -1.267933      2.630323
Ti       9.72210      1.70277      1.78873        -0.384187      2.996155      0.937013
Ti       9.98927      1.86164     14.82538         0.070530      0.155557     -3.294931
Ti       9.76926     13.67849      1.76786         2.018379     -2.093676      1.657819
Ti       9.96926     13.58385     14.51256        -0.790490      0.149374     -0.404508
Ti       9.84181      2.00965      6.14434        -2.494714      0.111132     -0.281863
Ti       9.65773     13.34516      6.13440        -1.507130      3.298410     -0.903356
Ti       9.61848      2.01805     10.14858        -0.833122      0.198836      1.077266
Ti       9.72605     13.62545      9.99261        -0.555193      0.888575      0.507830
Ti       9.91742      5.95989      1.77515         0.108575     -1.893724     -3.047929
Ti       9.90138      5.64511     14.47249        -1.716806      1.645034     -0.151093
Ti       9.61497      5.71428      6.58066         1.003917      1.578756     -2.721755
Ti       9.44704      5.94700     10.37161        -1.301258     -0.954985      1.606623
Ti       9.78379      9.62777      2.08353        -0.825752      1.988908     -2.995923
Ti       9.55775      9.54950     14.66493         2.798055     -1.935259      3.496170
Ti       9.68021      9.64913      6.12342        -0.871677     -1.837830     -1.409508
Ti       9.80898      9.79377     10.62720         0.210234     -0.983531     -1.968763
O       2.13860      2.36427      0.18286        -0.115592     -1.329149      1.158816
O       1.65535      1.57237     12.86864         2.231275      0.782732     -1.372795
O       1.46079     13.76853      0.50416         1.621261     -1.547739     -1.731511
O       1.55861     13.46864     12.83346         1.050537      0.466525     -1.087615
O      13.83352      1.84146      0.60698        -0.664490      0.157286     -0.505489
O      13.35059      1.56758     12.43363         0.761607      0.235107     -0.330411
O      13.66515     13.52069      0.38656         0.495876      0.640048     -1.233766
O      13.65437     13.55481     12.83711        -0.565633      0.346957      0.441395
O       1.86416      1.68950      4.53849         0.357329      1.025809     -0.652109
O       1.91957     13.91133      4.53966        -0.383522     -1.021936     -0.819447
O      13.49528      2.11694      4.36655         0.254859     -0.343206     -0.146371
O      13.84134     13.10532      4.33267        -0.493898      2.084841     -0.326808
O       1.80880      1.83954      8.47988         0.748863      0.562508      0.841538
O       1.70501     13.79837      8.61917         0.446525      0.067695     -1.677451
O      13.49791      2.05145      8.30110        -1.310769     -0.586009      2.359270
O      13.45092     13.21554      8.11525         0.145451      0.244889      1.732971
O       1.85497      5.61849      0.15990         0.329615      0.501095     -0.566744
O       1.90978      5.73582     12.80095         0.977750      0.919617      0.538923
O      13.75404      5.64217     16.59309        -0.268995      0.816099      0.869646
O      13.75698      5.63791     12.62928         0.552927      0.266920     -0.110286
O       1.82383      6.00502      4.04873         0.323553     -0.471132      1.712757
O      13.52329      5.73891      4.34808         0.242568      0.846381     -2.485445
O       1.95387      5.76785      8.49000         0.129566     -0.424483     -0.676787
O      13.85186      5.76876      8.83181        -0.090451     -0.311911      0.084658
O       1.83449      9.91965      0.47834        -0.167229     -0.668258     -1.537475
O       2.04624      9.72698     12.33068        -0.868033      0.175240      0.873166
O      13.58841      9.51076      0.37405         1.585146      1.378108      0.037989
O      13.70792      9.98242     12.44620        -0.081601     -1.374745      1.725124
O       1.98233      9.65739      4.25663        -0.193196     -0.185408      0.825932
O      13.35813      9.22990      4.42676         1.260374      0.476034     -1.632224
O       2.22623      9.34849      8.14530        -0.133400      0.960701      1.865464
O      13.68544      9.55467      8.41761         0.140740      0.815784      0.345442
O       5.84740      1.93956      0.32887        -0.302775      0.413114     -0.447746
O       6.07277      2.25479     12.56144        -0.984670     -0.718612     -1.039284
O       5.93956     13.78320      0.19668        -0.023962     -0.506765     -1.333638
O       5.51700     14.01589     12.34440         1.039714     -1.172532      1.627589
O       6.18354      1.77800      4.25356        -1.548026      0.215109      0.605743
O       5.87718     13.85323      4.22764        -0.068417      0.231666     -0.272362
O       6.02558      2.11684      8.42137        -1.587966     -0.426075      1.947506
O       6.05576     13.80564      8.23610        -1.181151     -0.777315      1.153065
O       6.04551      5.85682      0.20418        -0.408181      0.408994     -0.059199
O       5.79477      5.95481     12.64918         0.052501     -0.597059      0.391451
O       5.91948      6.19576      4.23136        -0.197528     -1.027455      0.279792
O       5.31884      5.76385      8.69653         0.306054     -0.098531     -0.812426
O       5.65398      9.98163      0.06985         0.201067     -0.276080      1.101050
O       6.21579      9.92717     12.71862        -1.550437     -0.123028      0.172022
O       5.97194      9.73649      4.16187        -0.615298      0.055716      1.434995
O       5.82766      9.78471      8.58583        -0.154302     -0.123461     -1.453559
O       9.83391      2.17460     16.60395        -0.006543     -0.905622      1.531448
O      10.01136      1.88300     12.82397        -1.427094     -0.985770     -1.110217
O       9.72190     13.95071     16.59684        -0.324130     -0.821442      0.426421
O       9.70924     13.29893     12.56390         1.151955      1.613393      1.427144
O       9.74904      2.15696      4.14774        -0.629799     -1.099524      1.188768
O       9.73317     13.46816      4.24019        -0.160008     -0.229320     -0.386476
O       9.57160      1.82829      8.37153         0.928217      0.139229     -1.004015
O       9.86964     13.64821      8.10859         0.137402      0.506370      1.747205
O       9.67148      5.85649     16.39044         0.950502     -0.181460      2.062071
O       9.92907      5.60515     12.43969        -1.140369      0.885062     -0.968334
O       9.51004      5.67590      4.61121         0.801181      1.151244     -0.525033
O       9.41494      5.97987      8.41370         0.585785     -0.212303      2.305666
O       9.82032      9.34525     16.60128         0.988443      0.679002      0.149076
O       9.87004      9.78108     12.79621        -0.511003      0.562968     -2.294981
O       9.46844      9.85933      4.20840         0.462010     -0.227339      0.197901
O       9.52997      9.50298      8.84643         0.236611      0.671042     -1.258494
O       3.91258      2.42252      2.27205         1.391894     -2.255836      0.109657
O       4.01317      2.05940     14.44343         0.504605     -0.268289      0.153245
O       3.94117     13.59323      1.93961         0.132557      0.640992      1.105491
O       3.90356     13.31204     14.44024        -0.783890      2.479022      0.907825
O       0.14078      1.92629      2.37671        -0.347082      0.062512      0.172233
O       0.05733      1.74748     14.41597        -1.475944      0.735665      1.734131
O       0.08210     13.65860      2.44751        -2.078119      1.554165      1.496498
O       0.08920     13.80236     14.85243        -2.834150     -0.753868      0.722164
O       3.83758      1.85412      6.64343         6.092623     -0.457614      0.211928
O       3.94780     13.82137      6.27250        -0.537049     -0.028087      1.197652
O      15.31075      2.08537      6.78300         0.212488     -0.642862     -2.144104
O      15.54142     13.56947      6.41035        -2.450679      0.020879      0.281145
O       3.78720      1.94672     10.56752         1.648874      0.113151     -0.364619
O       3.71252     13.49554     10.26204         2.573087      0.698466      0.043376
O      15.52628      1.57914     10.32806        -2.615646      0.489293      0.130895
O      15.47438     13.53172     10.36389        -1.108588     -0.318431      0.321505
O       3.93396      6.05656      2.03587         1.445833     -0.350762      0.032954
O       4.04477      6.02506     14.72617        -1.407823     -0.625581      1.356307
O       0.03672      5.20760      2.19602        -1.072508      2.826470      0.360044
O       0.10214      5.59899     14.41915        -0.231278      0.823165      1.541065
O       3.79071      5.91610      5.79988        -0.731365     -0.283050      1.333201
O      15.48008      5.56170      6.48900         2.074153      0.667524     -1.289157
O       3.79508      5.87999     11.01839         0.132840     -0.587837     -1.373685
O       0.20293      5.76299     10.83868        -2.302135      0.560547     -0.428693
O       3.78116      9.68753      2.25513         2.865078      0.401056     -0.527902
O       3.84947      9.68305     14.66725         0.899111      0.098768     -0.281017
O       0.10250      9.62187      2.56444        -3.041020     -0.383780      0.060070
O       0.06098      9.69502     14.65753        -1.298531     -0.037261     -0.103337
O       3.87242      9.86591      6.09912         0.596187      0.220282      0.346326
O       0.07079      9.75747      6.39291        -3.016493      0.695157     -0.033180
O       3.87813      9.88199     10.65114         3.053735      0.010446     -1.078072
O       0.09005      9.50684     10.26588         0.263718      1.247107      0.198262
O       7.84876      1.98274      2.13146         1.003783     -0.386630     -0.707511
O       8.02921      2.35143     14.61713        -1.135629     -2.185099     -0.028546
O       7.86512     13.64992      2.10151         1.617423      0.460874     -0.597308
O       7.75100     13.84713     14.52375        -0.084839     -0.100136      0.758585
O       7.76275      1.57564      6.61418         1.020522      1.217051     -1.802365
O       7.85615     13.82192      6.22632         0.639762      0.077687     -0.083708
O       7.93091      1.68967     10.72624        -1.864282     -0.034727     -0.403363
O       7.83509     13.90945     10.00338         0.975744     -1.388639      1.887431
O       8.10583      5.83055      2.07246        -3.640720      1.206788      0.484242
O       7.81251      5.63714     14.29027         0.231184      0.436441      0.838534
O       7.43054      5.74051      6.65489         0.112099      1.943895     -0.730344
O       7.55368      5.94422     10.47413         2.647646      0.126167      0.155990
O       7.95676      9.66685      1.67456        -1.263052      1.285505      1.485397
O       7.85469      9.97923     14.76667        -2.156074     -0.190363      0.322306
O       7.67807      9.68423      6.39291        -0.887117     -0.042346      0.671650
O       7.70761     10.01898     10.63856         1.662193     -0.871564      0.152188
O      11.61788      2.08609      2.01420         0.468609     -0.592702      0.694514
O      11.94105      2.20656     14.59789        -1.668945     -0.736451      1.817807
O      11.81918     13.49650      2.47386        -0.475986     -0.025288     -0.672981
O      11.84799     13.62813     14.96227        -1.312643     -0.443164     -0.772635
O      11.52470      2.37940      6.40476         1.307139     -1.844208      0.438207
O      11.63862     13.26051      6.09744        -0.360564      0.094561     -0.038327
O      11.52428      2.24739     10.27628         2.057616     -1.075229      0.241737
O      11.56389     13.12840     10.42263         1.755887      1.374864     -0.165689
O      11.64691      6.34738      2.19749         0.613659     -1.825129      0.015498
O      11.75528      5.93087     14.11987         1.085869     -1.481665      3.416071
O      11.58218      5.73616      6.76947        -0.626589      1.294890     -0.711996
O      11.88336      5.72087     10.43897        -3.429855     -0.772369      0.818719
O      11.81278      9.87678      2.28690         0.540422     -1.039025     -0.079287
O      11.84269      9.41927     14.68803         0.774824      0.464717     -0.139388
O      11.51605      9.95854      6.08084         0.183412     -0.872224      1.232016
O      11.82800      9.92842     10.41636        -2.576151     -0.160890      0.797330
O       1.97670      3.94704      2.42963         1.050045     -0.404921      0.181286
O       2.16982      3.84423     14.57603        -0.533944      0.463074      0.104617
O       2.29569     15.60536      2.18255        -0.486003      1.571936      0.253818
O       2.07401     15.59846     15.30964         0.415441     -0.356577     -1.316602
O      13.36977      3.99687      2.13998        -0.510000     -1.864459      0.334225
O      13.82458      3.78861     14.88847        -0.354616     -0.064096     -0.855245
O      13.58742     15.56681      2.50012         0.234978      0.383569      0.156269
O      13.67136      0.06356     14.85677        -0.205564     -1.909300      0.433504
O       2.20904      3.80972      6.10462        -0.866452      2.589722      0.777526
O       1.68976      0.10081      6.47366        -0.466691     -1.467400      1.121021
O      13.41403      4.10858      6.43145         0.894928     -1.319677      0.474120
O      13.36164     15.46486      6.27308         0.314286     -0.261385      0.136663
O       1.80824      3.77335     10.93363         0.918109     -1.101132     -1.566713
O       1.86636     15.50791     10.88217         0.969645      0.009907     -1.055437
O      13.78248      3.63746     10.63301         0.115137     -1.145421     -0.507557
O      13.47611     15.26234     10.18477        -0.958629      1.326787      0.003976
O       1.76041      7.71381      1.93636         0.369263      0.025013      0.578058
O       1.86211      7.89250     14.70620         0.263629     -1.635676      0.629179
O      13.77795      7.53931      2.06396         0.873032      2.704168      0.524650
O      13.99287      7.61702     14.58767        -0.860370      0.818816      0.023170
O       1.44692      7.78230      6.06244         2.077438     -2.632236      1.350890
O      13.62794      7.63122      6.61779         0.326834      4.231278      0.261408
O       2.04232      7.72783     10.30919         0.229826      0.134841      0.511163
O      13.73105      7.79810     10.69314        -0.364778     -0.050174     -0.328548
O       2.04468     11.79885      2.24721        -1.115726     -0.422663      2.015525
O       1.88894     11.46604     14.80038        -0.208768      3.360262      0.130215
O      14.28614     11.65537      2.15725        -1.241848     -1.850621      0.351719
O      13.67774     11.51175     14.68062         0.274598      0.783940      0.299747
O       1.93557     11.87729      6.39643        -0.246743     -1.653506      1.220663
O      13.80339     11.47750      6.08995        -0.094890     -1.751437      1.192315
O       1.98188     11.55375      9.96714        -1.567235     -1.084494      1.197146
O      13.76618     11.62179     10.44500         0.289266     -0.097156      0.211242
O       5.78466      4.01599      2.24153         0.982174      0.246022      0.007565
O       5.97618      3.97306     14.95850        -1.151292     -0.704524     -0.506979
O       5.77031     15.51156      2.11870        -0.118607      2.847511      0.562064
O       5.95796      0.27255     14.55308        -0.019126     -1.495385      0.374843
O       5.89447      3.76320      6.26283        -1.614941      0.073714      0.098768
O       5.65611      0.00072      6.46474         0.208724      2.103425     -0.173234
O       5.91848      3.94774     10.47036        -0.537285     -1.366315      0.346215
O       5.87584      0.01470     10.23471        -0.965676      0.954290      0.185779
O       5.96996      8.00762      2.25275        -0.226944     -0.471082     -1.379434
O       5.94019      7.89516     14.55360         0.559774      0.354612      0.838021
O       5.44234      7.84284      6.49321         1.077588      2.757833      0.212941
O       5.91396      7.81376     10.62859        -0.853756      1.104485     -0.494886
O       6.09419     11.79329      2.46069        -1.396814     -1.008779     -1.695788
O       5.74975     11.85862     14.41471         1.822383     -0.598120      0.984013
O       6.04638     11.92057      6.01308        -0.589772     -3.022275      1.088976
O       5.85601     11.85739     10.17855        -0.297843     -0.810716      0.896102
O       9.86970      4.05753      2.06551         0.345314     -0.223474      0.278374
O       9.85133      3.90083     14.45099         1.073382     -1.579944      0.938967
O      10.16246     15.60098      2.13048        -1.379497     -1.151349     -0.008366
O      10.00486     15.58572     14.41074        -0.408557     -0.340506      1.004939
O       9.66294      3.94108      6.37917        -1.549262     -2.226877      0.803699
O       9.95621     15.55211      5.83932         0.528225      1.407031      1.718421
O       9.25120      3.88908     10.46005         1.846256      0.032621     -1.048397
O      10.12321     15.54234     10.41367        -0.671116     -0.920533     -0.612052
O       9.84765      7.88713      2.25676        -0.911568     -1.545426      0.621972
O       9.51084      7.68098     14.54806         0.488620      1.012673     -1.454326
O       9.42625      7.80093      6.29948         0.768460      1.128697      0.217967
O       9.87569      7.72035     10.67020        -0.390102      0.698195      0.186082
O       9.91225     11.61171      1.68111        -0.810144      2.127818      0.564564
O       9.72242     11.71461     14.75636         0.844919      0.761975      0.590038
O       9.44305     11.59383      6.50983         0.079402     -1.355438     -0.180699
O       9.63702     11.72756     10.27928        -0.442017     -0.801929      0.380409
