  # total energy = -7829.76205290 
CRSYTAL
PRIMVEC
    15.6080000000000005    0.0000000000000000    0.0000000000000000
     0.0000000000000000   15.6080000000000005    0.0000000000000000
     0.0000000000000000    0.0000000000000000   16.6239999999999988
PRESSURE
4.74668 5.39059 -1.08079 -0.19512 -0.211373 0.143153
PRIMCOORD
320 1
Pb       4.30123      4.04939      4.29136        -0.811373      0.717394      0.388641
Pb       4.08341      3.87400      0.11490        -0.192058      0.148718     -0.731526
Pb       4.29726      0.14947      4.35764        -0.467354     -0.149736      0.156165
Pb       3.77504      0.05213      0.53395         0.738761     -0.775647     -1.639641
Pb       0.46408      4.06906      4.30572        -0.685804      0.033839      0.284188
Pb       0.08967      3.89109      0.42407        -0.714689      0.641064     -1.944867
Pb      15.27419     15.58151      4.37455         0.739782      0.427502      0.371634
Pb       0.22909     15.60079      0.11045        -0.257434      0.288360     -0.942124
Pb       3.96284      3.68309      8.25452        -0.637695     -0.567013     -0.783542
Pb       3.89772      0.03409      8.84819        -0.573951     -0.261680     -2.142779
Pb      15.40479      3.85931      8.15696         0.625259     -0.054412      0.833382
Pb      14.98187     15.43861      7.88946         1.365121      1.053254      0.450383
Pb       3.77880      3.90917     12.29979         0.383842     -0.775905      0.058150
Pb       3.65355      0.41980     12.46524         0.969879     -0.900009     -0.677660
Pb       0.25878      3.76523     12.73086        -1.702384      0.157025     -1.911116
Pb      15.23172     15.35491     11.97217         0.988433     -0.165258      0.715774
Pb       3.79703      8.20496      4.21703         0.441567      0.146803     -0.111493
Pb       3.86814      8.01709      0.13061        -0.828890      0.362349      0.019845
Pb       0.19205      7.67488      4.21561        -0.160297      0.241062     -0.880802
Pb       0.17818      8.12513     16.60931         0.556619      0.006957      0.204063
Pb       4.14445      7.82790      8.99635        -2.243748      1.091125     -1.338754
Pb       0.06696      7.70135      8.71629         0.226309     -0.483757     -0.547407
Pb       3.74620      7.39108     13.00500        -0.082920      1.334127     -1.252167
Pb       0.13357      7.37618     12.80374        -0.189271      0.814510     -0.821441
Pb       3.56590     12.13204      4.90266         0.873877     -0.510774     -1.951636
Pb       3.31370     12.04322      0.39470         2.267958     -2.012152     -0.267222
Pb       0.06432     11.64123      4.48696         1.188640      0.000306      0.279120
Pb      15.44737     11.86594     16.38520         0.692004     -0.995408      0.202967
Pb       3.58942     11.53128      8.62155         0.909689      1.014149     -0.442512
Pb      15.30010     11.43776      8.18960         1.719657     -0.409695      0.037543
Pb       4.15178     11.86232     12.75643        -0.357755      0.772876     -2.117567
Pb      15.16320     11.92940     12.42892         0.775130     -0.895412      0.097859
Pb       7.85706      4.02579      3.75392         1.480633      1.359691      1.188105
Pb       7.78118      3.85987     16.47712         0.818607     -0.067283     -0.078201
Pb       8.32185     15.56635      4.10765        -1.379799     -0.423745      0.227246
Pb       7.59217     15.43435     16.58876         0.381589     -0.081731      0.058138
Pb       7.54718      4.01779      8.23176         1.197987      0.790267     -0.314033
Pb       7.66958      0.00874      8.37636         0.340174     -0.120328     -0.403335
Pb       8.00098      3.95134     12.53473        -0.788990     -0.293991      0.306132
Pb       7.96037      0.10822     12.99893        -0.017902     -1.311423     -1.290947
Pb       7.58479      7.84828      4.05353        -0.422273     -0.997639     -0.305490
Pb       7.48000      7.90681      0.23001         3.191630     -0.402162     -2.435901
Pb       7.78528      7.97783      8.34719        -0.088822     -0.542883     -0.631256
Pb       7.55346      7.83177     12.79785         0.483567      0.721808     -0.614351
Pb       7.61876     11.91962      4.11427        -0.319561      0.404004     -0.014551
Pb       7.84741     11.81476      0.04323        -0.089520      0.496428     -0.921817
Pb       7.60332     11.51402      8.21391        -0.027608      1.392585      0.152499
Pb       8.09604     11.62651     12.93852         0.321065      0.341161     -0.586142
Pb      11.65369      3.70642      3.91879        -0.654344      0.344763      0.245198
Pb      12.04060      3.78303     16.58831        -1.727274     -0.028081     -0.858554
Pb      11.90576     15.09589      4.42452        -0.310586      1.860364     -0.206593
Pb      12.41522     15.57385      0.50039        -1.103735      0.350856     -0.896301
Pb      11.61456      4.16170      8.62204        -0.111320     -0.846630     -0.341773
Pb      11.61968      0.34357      8.10771        -0.480606     -0.453535      0.651921
Pb      11.66133      3.44994     12.69198         0.197276      0.486977     -0.458597
Pb      11.53108     15.09464     12.06892         0.959576      1.837349      0.179831
Pb      11.18480      7.44985      4.27197         1.532323      1.209111     -0.937671
Pb      12.21188      7.82148      0.15707        -0.898606     -0.304862     -1.797934
Pb      12.06548      7.47771      9.01503        -0.725663      0.373671     -2.039075
Pb      11.47482      7.58484     12.82427         1.964778      0.374848     -1.855430
Pb      11.41906     11.43640      4.07954        -0.213778      0.492448      0.963735
Pb      11.87975     11.50285     16.39361         0.140436     -0.173543      0.327326
Pb      11.10686     11.45363      8.30804         2.337414      1.042236     -1.283365
Pb      11.51137     11.49322     12.20117         0.228026      0.116577     -0.020499
Ti       2.01596      2.16945      1.96343         0.597248     -2.778389      0.150667
Ti       2.02561      1.85977     14.55623        -2.251885      0.505772      0.090911
Ti       1.76042     14.00417      2.26450         2.087513     -1.430999      1.438084
Ti       2.02025     13.75005     14.33200        -0.045362      0.262387     -1.717946
Ti      13.74729      2.03887      2.29156         0.212403     -0.524740     -0.339320
Ti      13.91729      1.60417     14.22529         0.077809      3.519457      2.699396
Ti      13.67039     13.22878      2.40569         1.966643      1.938665     -0.945902
Ti      13.75871     13.68589     14.66839         0.178091      0.447770     -1.140673
Ti       1.97230      1.79554      6.34836         0.526266      1.496007      2.695659
Ti       1.86456     13.91726      6.37104        -0.152197     -0.405521      1.266696
Ti      13.55453      2.28271      6.22537         1.234146     -0.464711      0.362342
Ti      13.57463     13.21484      6.21634        -0.674554      2.895800      0.114448
Ti       1.64992      1.78923     10.34099         2.676190      0.312933     -1.206977
Ti       1.74605     13.56875     10.23285         1.219519     -0.233188     -0.281226
Ti      13.55024      1.85519     10.28575        -1.839949      0.684637     -1.686021
Ti      13.58597     13.47857      9.95184        -0.278487     -0.255984      0.753135
Ti       2.09714      5.85417      1.83085        -1.095067      0.181207      0.924650
Ti       1.95575      5.73159     14.60050        -0.447744     -1.446157      1.787231
Ti      13.59418      5.67652      1.88577         2.276827      0.153734     -0.687386
Ti      13.65813      5.52448     14.32011         0.266201      0.591341      2.619376
Ti       2.00642      5.83016      6.25896        -1.718731     -0.036909      0.531931
Ti      13.23488      5.89376      6.12610         1.617280      1.628866      0.557350
Ti       1.96258      5.43250     10.04395        -1.299562      5.561610      0.548822
Ti      13.84359      5.70110     10.56578         0.339746     -0.931177     -1.230234
Ti       1.76541      9.97970      2.38612         2.032028     -0.884393     -1.749347
Ti       1.96624      9.99613     14.15109        -0.615703     -0.581359      1.204022
Ti      13.56021      9.43025      2.24540         1.652385      0.607190     -0.040022
Ti      13.70606      9.58808     14.28663         0.899163     -0.787933     -0.490953
Ti       1.87933      9.64475      6.44875         0.168174      0.927920      0.875134
Ti      13.34315      9.59520      6.04000         0.862424     -3.058563      0.701447
Ti       1.94075      9.75856     10.44081        -0.360138     -1.560933     -0.660831
Ti      13.70287      9.69924     10.17989        -0.212192      0.058741      2.470086
Ti       6.15888      1.97095      2.21115        -5.511052     -2.061327     -1.029979
Ti       6.00068      2.08901     14.47448        -0.963813     -1.339052     -0.564200
Ti       5.79248     13.71727      2.03986         0.201470      0.169800      0.204832
Ti       5.93604     13.65937     14.36013        -0.404146      1.643530      0.041188
Ti       6.20198      2.15623      6.04865        -3.777831     -1.402245      1.922836
Ti       5.99349     13.81731      6.28517        -0.717235      1.033284      0.182310
Ti       5.95341      1.98291     10.30840        -2.948058     -0.540993      1.204552
Ti       5.98265     13.61159     10.31014        -0.909435     -0.658659     -0.114033
Ti       5.90155      5.83214      1.88263         0.381176      1.311711     -0.341247
Ti       5.98368      5.96612     14.54169        -0.612400     -0.938749      0.979772
Ti       5.65817      6.24246      6.42464         1.398895     -3.370939     -0.925959
Ti       5.74958      5.85425     10.44743        -0.564621      0.553861     -0.090420
Ti       5.77739      9.92486      1.69605        -2.496101      1.117765      2.704863
Ti       5.83579      9.93695     14.50347         0.232785     -1.178259      0.544905
Ti       5.81562      9.99602      6.11401        -1.968598      0.030646     -1.526560
Ti       6.09347      9.84579     10.45779        -2.712596      1.292792      0.018644
Ti       9.75858      1.80457      1.91531         1.431939      2.255826     -0.918862
Ti       9.96097      1.81939     14.72838         0.206921      1.031672      2.127392
Ti       9.90980     13.51408      1.98729        -2.531758      1.968104     -0.302073
Ti      10.07766     13.74099     14.86975        -2.071967     -0.552243     -1.902241
Ti       9.71179      2.14951      6.18814         0.918832      0.856131      1.431746
Ti       9.77973     13.72426      6.06067        -0.848295     -0.792100      1.330192
Ti       9.57978      2.00063     10.36240         2.425149     -1.012069     -3.026786
Ti       9.88020     13.73595      9.80654        -2.039110      1.256137      1.371234
Ti       9.91150      5.80889      1.50952        -2.628556      0.444772      2.677085
Ti       9.78365      5.72323     14.55732         0.852279     -0.668679      0.219884
Ti       9.53175      6.07072      6.28041        -1.474340     -2.713653      2.683631
Ti       9.43938      5.96675     10.35438         1.076709     -1.731570     -0.594687
Ti       9.77375      9.74169      2.04346        -0.699606     -2.040585     -0.497827
Ti       9.90842      9.47581     14.75411        -1.647218      1.959409      0.313641
Ti       9.52343      9.67150      6.06614         0.097046      2.900516      0.164773
Ti       9.74149      9.70072     10.30908         0.197787      0.757133      1.845925
O       1.94544      1.91191      0.12161         0.490778      0.918187     -0.013941
O       1.77767      1.85265     12.40795         0.437584     -0.605941      0.594877
O       1.73782     13.47065      0.33696        -1.485916      2.261440      0.774477
O       1.83863     13.62620     12.44317         0.534828      0.279922      2.058358
O      13.38296      2.13172      0.39493         2.005676     -1.689940      1.567343
O      13.68064      1.42629     12.51983        -0.650719      0.532565     -2.715440
O      13.94616     13.64219      0.04209        -0.554594     -0.087938      1.144174
O      13.56337     13.64960     12.58819         0.645358      0.378573      1.367401
O       1.95232      1.82802      4.67090        -0.148939      0.031592     -3.983613
O       1.76346     13.64066      4.40548        -0.054700      1.059198      0.438171
O      13.49648      2.20464      4.33270         0.455232     -0.180024      0.492128
O      13.76003     13.52750      4.20796         0.114944     -1.001595     -0.430571
O       2.27923      2.03612      8.55266        -1.344577     -0.187729      0.867058
O       1.64858     13.73029      8.36426         0.404311     -1.180155      2.041390
O      13.58542      1.74241      8.23108         0.616687      1.163280      0.873587
O      13.49474     13.15681      8.13174        -0.058432      0.598132      1.544716
O       1.90521      5.27593     16.58507        -0.036694      0.536710      0.360761
O       2.05593      5.78228     12.64243        -0.340243     -0.208733      0.035167
O      13.61189      5.56799     16.57707         0.362242     -0.337045      0.843295
O      13.88597      5.66215     12.56408        -0.730733      0.283161     -1.921459
O       1.96943      5.79769      3.93938         0.443164      0.171934      0.630552
O      13.12871      5.99537      4.35514         0.020985     -0.733097     -0.898652
O       1.82945      5.62896      8.24285         0.027987      0.787913     -1.332830
O      13.87182      5.91020      8.59099        -0.489809     -0.140018      0.086110
O       2.25184      9.60286      0.46401        -1.902664      1.636525     -1.217654
O       1.76246      9.74519     12.39965         0.367431      0.264967     -0.736202
O      13.74038      9.71664      0.02920        -0.711934     -0.608347      0.545293
O      13.69927      9.55913     12.52147         0.264578      0.887163      0.628770
O       1.82022      9.67022      4.27490         0.200293     -0.289527      0.099386
O      13.69314      9.38173      4.15741        -0.722712      0.553968      0.323088
O       2.15842      9.67139      8.41742        -0.425482     -0.022522     -0.986994
O      13.35111      9.95806      8.47328         0.035648     -0.660530     -1.969445
O       6.15721      2.36857      0.05524        -1.073623     -1.301090     -0.214204
O       5.82532      2.13684     12.64260         0.265883     -0.040400      0.010412
O       5.71440     13.93331      0.22346         0.670912      0.565761     -0.288371
O       5.95661     13.46192     12.47787         0.185232      0.682528      1.861214
O       5.78361      2.15854      4.28723         1.048739     -0.464658     -2.061301
O       5.88774     13.74261      4.31389         0.018567     -0.463490      0.082186
O       5.69838      2.15783      8.50960         1.098848     -0.151153      0.020581
O       5.76465     13.52160      8.33658         1.245294      0.654616      0.754328
O       6.10702      5.94243     16.52351        -0.286009     -0.737741      1.981431
O       5.85012      6.17103     12.61297        -0.440848     -0.484768     -0.001170
O       5.87769      5.88008      4.34993        -0.228858      0.609351     -0.508042
O       5.65031      5.70226      8.35683         0.688155      1.082760      0.449196
O       5.48443     10.01690     16.60765         0.511730     -0.745718     -1.029698
O       5.96787      9.98147     12.66193         0.640342     -0.093800     -0.138438
O       5.86501      9.90563      4.20015         0.817186     -0.241683      1.548192
O       6.04247      9.82018      8.50899        -0.065798      0.107061      0.072624
O       9.64576      1.91692     16.56386         0.180137      0.703804      1.902356
O       9.84575      1.62944     12.06959        -0.232167      1.213237      3.183027
O       9.56490     13.65598      0.13576         1.694131      0.520676     -0.002798
O       9.82451     14.04002     12.85139        -0.356547     -1.990144      1.492804
O       9.48965      2.10204      4.36493         1.050764      0.164244     -1.533702
O       9.62318     13.45094      4.17165         0.682742      0.675272     -1.821570
O       9.81377      1.77872      8.24108        -1.208991      0.255731     -0.832598
O      10.08223     13.94892      7.99915        -0.841830     -1.701712      1.451781
O       9.80942      6.03187     16.42259        -0.955290      0.216763     -0.828775
O       9.71722      5.43963     12.28881         0.338447      1.137846     -0.293162
O       9.47175      6.06842      4.50641        -0.364703     -0.680577     -1.720492
O       9.48297      5.81380      8.34068        -0.068190      0.892108      2.174239
O      10.30863      9.77719     16.55717        -1.089670     -1.390372     -0.157406
O       9.81177      9.93747     12.47602        -0.193282     -0.257503      0.144400
O       9.49484      9.79355      4.01021         0.357110      0.194365      0.627398
O       9.66384      9.83942      8.22849        -0.903707     -1.183142      1.711797
O       4.09669      1.64115      1.98717        -0.692306      2.449891      0.826311
O       3.75974      1.98295     14.47097         2.535613      0.511715      0.373318
O       3.82960     13.87511      2.21852         0.133902      0.255135     -0.044888
O       4.01716     13.78520     14.60087        -0.823566     -1.200152     -0.746370
O       0.07786      2.20900      2.16434        -0.360985      0.026782      0.537687
O       0.10008      1.66930     14.84982        -1.530136      0.304445     -0.942451
O       0.06956     14.21155      2.48239        -3.249960     -2.049488     -0.885885
O       0.05649     13.72607     14.64472        -0.345139      0.101071     -0.107712
O       3.91014      1.95165      6.40011         0.247578      0.249041     -0.234300
O       3.81048     13.98900      6.37127        -0.671200     -0.698658     -0.514636
O      15.47675      1.72753      6.39634        -1.871492      0.630599      0.104256
O      15.43994     13.62793      6.29795         0.573823     -0.849059     -0.308859
O       3.92709      2.05756     10.65476         0.882550     -0.183085      0.251485
O       3.96174     13.43276     10.60396        -0.402465      0.190147     -0.997406
O      15.50198      1.73501     10.34131        -0.439930     -0.089569     -0.115337
O      15.46375     13.39304     10.71800         0.332389      1.908470     -2.109237
O       3.93536      6.05840      1.69470         2.105011     -0.336504      0.490603
O       3.77548      5.85805     14.91468         1.818167      0.074529     -1.044693
O      15.46660      5.79942      1.96853         0.351202     -1.819622      0.339718
O      15.54477      5.62685     14.64421        -0.164457      0.126534     -0.588915
O       3.78473      5.62903      6.14977         0.343374     -0.023272      0.160287
O      15.60175      6.19230      5.75453         1.071716     -1.980452      1.838096
O       3.79314      5.63871     10.33484         1.722458      0.741259      0.820763
O       0.13410      5.84432     10.51330        -0.236935     -0.225386      0.186443
O       3.90748      9.55195      2.17846         1.492242      0.452497      0.574474
O       3.87866      9.69523     14.08106        -0.533427      0.177295      1.734655
O       0.05184      9.53651      2.20722        -2.468726      0.270516     -0.575727
O       0.13085      9.55548     14.51497        -0.679502      0.289488      0.363998
O       3.82327     10.11087      5.97803         1.712397     -0.810590      1.203418
O       0.00356      9.54543      6.44176        -0.407374      0.290289     -0.271629
O       4.02360      9.96525     10.28572        -1.100314     -0.433072      1.119687
O      15.57748      9.71452     10.11084         1.039333     -0.346347      0.080332
O       7.80173      2.28794      2.04135         3.715306     -0.583070      0.279239
O       7.92687      2.03654     14.40439        -0.773165      1.143115      0.076936
O       7.90606     13.83825      2.05830        -0.309470     -1.331141      0.624839
O       7.89103     13.88057     14.62178        -1.669802     -0.837185      0.443285
O       7.89958      1.73403      6.15587        -0.155964     -0.123919      1.168832
O       7.88355     13.96986      6.21152         0.515295     -0.550695      0.310474
O       7.71637      1.75382     10.27010         1.303450      0.332303      0.343019
O       8.05012     13.64831     10.37167        -0.189882      1.143000     -1.402830
O       7.73915      6.22740      2.09944        -0.056364     -1.954637      0.071023
O       7.90449      5.82568     14.40765        -1.470841     -0.136430     -0.253626
O       7.60019      6.49713      6.47722         0.013858     -0.883449     -0.035993
O       7.60182      5.99954     10.45525         2.957012      0.521713     -0.051572
O       8.04009     10.08643      1.54643        -1.531904     -1.140021      0.693058
O       7.86763      9.87265     14.82281         0.365145     -0.307855     -0.761438
O       7.64811      9.67507      6.42416         0.673429     -0.219643     -0.571284
O       7.86051      9.82635     10.73333         2.027627     -0.395863     -0.891286
O      11.55289      2.04054      2.44259        -0.544737     -0.735444     -1.049982
O      11.78992      1.98654     14.88469        -0.843877     -0.340866     -2.003464
O      11.93416     13.61970      2.27946        -2.051430     -0.012105     -0.514459
O      11.90036     13.70957     14.76835        -1.715411     -0.053179      0.588833
O      11.75088      1.94525      6.48562        -0.611871      1.590714     -1.838834
O      11.66201     13.18653      5.87835         0.641308      0.323733     -0.306662
O      11.68439      1.88120     10.21049         1.558935      1.320651      0.560431
O      11.82401     13.46907     10.38512        -0.537508     -0.094517     -0.187449
O      11.63186      5.57451      1.62027         1.072234      1.526481      1.535217
O      11.68126      5.50564     14.76955         1.167036      1.160471     -2.196128
O      11.41402      6.10408      6.52131         0.507000     -1.249983     -0.389093
O      11.81018      5.62805     10.38309        -0.309426      0.992403      0.506478
O      11.68795      9.60780      2.03991         1.858284      0.308326      0.803164
O      11.72655      9.45392     14.35489         0.336929      0.714982      0.478685
O      11.50786      9.64984      6.03120         1.030091      1.228277     -0.389194
O      11.75360      9.78315     10.62297        -1.476011     -0.228970     -0.742957
O       2.37555      3.88780      2.10029        -0.275319     -0.043404      0.618575
O       1.72172      3.72397     14.22328         2.064658      0.102651      2.279745
O       1.87562      0.25979      2.18538         0.585480     -1.411347     -0.061383
O       2.04888     15.55502     14.84156        -0.292325     -0.760831     -0.482785
O      13.42926      3.91392      2.34209         0.170534     -0.086231      0.443797
O      13.65833      3.55575     14.07450         0.173354      0.981215      1.018773
O      13.68520      0.20186      2.48690        -0.248229     -0.328048     -0.527262
O      13.55245      0.13312     15.05067         0.161145     -3.798255      0.389385
O       1.49455      3.85279      6.44185         0.976420      1.161573     -1.220915
O       1.61085      0.04629      6.91925         0.637150     -0.881442     -1.496214
O      13.81799      4.11580      6.59314        -1.046917     -1.111570     -1.392581
O      13.50225     15.14503      6.13988        -0.776141      1.708097     -0.077100
O       1.91899      3.82297     10.45162        -0.441754     -3.959194      1.240535
O       2.12465     15.51069     10.30090        -1.114881      0.351987      1.234954
O      13.79626      3.82749     10.22192        -0.439904     -0.978515      0.949199
O      13.52136     15.54660     10.16456         0.993237     -1.960201      0.662519
O       1.74603      7.53451      1.69925         0.448903      1.245632      0.681220
O       1.91191      7.56236     14.64521        -0.371869      1.871092     -0.147925
O      13.66971      7.50796      1.95421        -0.939901      3.473795      0.590380
O      13.57434      7.53027     14.37835         0.021305      1.294178      0.525439
O       2.40363      7.94007      6.17943        -1.038713     -2.452601      0.326263
O      13.41464      7.67319      6.50529         0.338334      2.443624     -0.239302
O       1.94882      7.73207     10.22785         0.674519      1.229288      0.594999
O      13.85612      7.74967     10.43602        -0.631882      0.142459      0.277530
O       1.81729     11.75244      2.60296        -0.031209      1.008678     -1.256106
O       1.83207     11.78435     14.74493         0.797873     -0.626235     -0.581237
O      13.66711     11.49706      2.24524         0.340272     -0.847413      0.058023
O      13.74931     11.67585     14.65429        -0.317480     -0.249783     -0.075184
O       1.82014     11.73161      6.54074        -0.033817      0.307742     -1.130405
O      13.69186     11.44766      6.15290         0.170622     -2.296129     -0.637356
O       1.71321     11.64952     10.17891         0.891412     -0.015866      0.425039
O      13.88546     11.56983     10.51623        -1.335026      1.363415     -0.147725
O       5.90666      4.02288      2.17780        -0.596444      0.327646     -0.098614
O       5.73505      4.19278     14.54467         0.656228     -2.090711      0.097441
O       6.02430      0.09964      2.41127         0.650841      1.011057     -0.405167
O       5.91770      0.17337     14.56167         0.396637      0.154402      0.157693
O       5.86187      3.93243      6.27868         0.952475     -0.167918      0.278677
O       6.02788      0.02699      6.32926        -0.984268      1.727516     -0.017288
O       6.08822      4.16238     10.62648        -0.491981     -3.189670      0.234172
O       5.75485     15.59317     10.15403         1.061551      0.906410      1.240007
O       6.14681      8.04211      1.82659        -2.253253      0.241572      2.002157
O       6.06281      7.99196     14.90641        -0.809129     -0.370117     -1.603868
O       5.55605      7.93091      6.44071        -0.982449      2.743133     -0.186014
O       5.83590      7.92715     10.50090         0.230637     -0.386264      0.369441
O       5.74966     11.90390      1.79851         0.749085     -1.341874      1.364329
O       5.95995     11.79571     14.78912        -0.260669      0.550689     -0.769412
O       6.15246     11.90281      6.35321        -0.489908     -2.476111     -0.729023
O       6.11261     11.79567     10.48049        -0.047204     -1.309228     -0.275856
O       9.69227      3.97613      2.10015        -0.577484      0.939154     -0.113334
O       9.80904      3.91872     14.66374        -0.884017     -1.696737     -1.129700
O       9.62508      0.07024      2.00802         0.798669     -0.913560      0.682629
O       9.56622      0.08364     14.84279         1.088095     -1.128991     -0.437760
O       9.16526      4.06087      6.37977         1.097354     -0.787394     -0.395474
O      10.11451     15.57829      6.07070        -0.519192      0.337918     -1.030295
O       9.81972      3.79899      9.95839        -1.670228      0.730493      1.797288
O      10.10123     15.60668     10.10512        -0.863716     -1.929407      0.387096
O       9.77605      7.78153      2.14323         0.231757      0.328585     -0.523674
O       9.69444      7.63995     14.09546        -0.152005      1.292771      1.447917
O       9.69188      7.98505      6.35396        -0.350219     -1.091230     -0.133703
O       9.74494      7.84226     10.36055        -0.000852     -0.616245      0.276950
O       9.85491     11.76394      1.99519         0.895710     -1.270933      0.302837
O       9.75766     11.68722     14.98057         0.996782      1.107502     -1.308600
O       9.52413     11.78954      6.21376        -0.122988     -1.947266      0.156350
O       9.88684     11.82621     10.33904         0.135680     -1.483358     -0.314385
