  # total energy = -7881.30810017 
CRSYTAL
PRIMVEC
    15.464    0.0000000000000000    0.0000000000000000
     0.0000000000000000   15.464    0.0000000000000000
     0.0000000000000000    0.0000000000000000   17.350608
PRESSURE
0.40883 0.091132 -1.6462 0.34446 -0.172452 -0.006958
PRIMCOORD
320 1
Pb       3.87510      3.52797      4.26028        -0.190261      0.970802      1.063130
Pb       3.84548      3.72954     17.18068        -0.515537      0.923739      0.825965
Pb       3.97772     15.37851      4.28152        -0.783980     -0.327396      0.235172
Pb       3.86173      0.06604     17.35021        -0.365314     -1.148022      0.290164
Pb      15.25639      3.83645      4.23448         0.497678     -0.209657      0.658364
Pb      15.33888      3.80330     17.34586         0.521934      0.122100      0.228132
Pb      15.31072     15.43179      4.18839         1.090787      0.084560      0.655458
Pb      15.31029      0.01752     17.31468         0.396388     -0.357946     -0.328068
Pb       3.87650      3.78506      8.57190        -0.511281      0.236970      0.160093
Pb       3.96165      0.00460      8.58015        -1.455379     -0.057686      1.067597
Pb      15.45501      3.98622      8.52163        -0.213307     -0.131344      0.649800
Pb       0.08808      0.12264      8.70533        -0.045463     -0.328221     -0.224970
Pb       3.82933      3.93409     13.01054        -0.237821      0.295815      0.358531
Pb       3.79692      0.13504     12.90759        -0.129674     -1.000091      0.959202
Pb      15.25246      3.84059     12.95887         0.339536     -0.043632      0.814533
Pb      15.39337     15.35734     12.93935        -0.017701     -0.011937      0.819116
Pb       4.03143      7.60061      4.19655        -0.401348      0.596060      0.788394
Pb       3.95106      7.79346      0.01866        -0.667431     -0.232876     -0.268619
Pb       0.07593      7.76634      4.27367        -0.052115      0.114897      0.735613
Pb       0.04252      7.79003      0.04426         0.268776     -0.730284     -0.000660
Pb       3.68215      7.53460      8.63879         0.012685      0.685141      0.288935
Pb      15.32514      7.82370      8.69198         0.414686      0.006645     -0.447174
Pb       3.89226      7.80452     12.93440         0.020962     -0.223043      0.852664
Pb      15.36197      7.56481     12.92282         0.702445      0.519058      1.179131
Pb       4.08122     11.48494      4.36884        -0.991723      0.315712      0.475625
Pb       3.97806     11.58717     17.29941        -0.591631      0.185898      0.121109
Pb      15.45881     11.64863      4.31944         0.662314      0.164365     -0.052344
Pb      15.39334     11.60532      0.02551         1.179591      0.297875      0.446458
Pb       4.02846     11.46554      8.84932        -0.944361      0.444531     -0.137553
Pb       0.08513     11.70450      8.58490        -0.116794     -0.414542      0.772328
Pb       3.84410     11.63719     12.93049        -0.312334     -0.313919      0.140853
Pb      15.41801     11.24439     13.01712         0.559513      0.857379     -0.217167
Pb       7.74890      3.74580      4.30287        -0.383099      0.778269      0.230536
Pb       7.66455      3.74959     17.25981         0.115609      0.158510      0.058133
Pb       7.74699     15.41378      4.28358        -0.027210     -0.267667      0.089173
Pb       7.67891      0.01487     17.26822        -0.007334     -0.177130      0.144963
Pb       7.64615      3.80286      8.47998         0.178492      0.688043      0.520669
Pb       7.80391     15.30131      8.64960         0.150258      0.240500      0.407442
Pb       7.73854      3.99158     12.98167        -0.003814     -0.208055      0.813649
Pb       7.61254      0.10771     12.93840         0.683819     -0.955193      0.643063
Pb       7.80861      7.69028      4.23348         0.308836     -0.153320      0.467942
Pb       7.76931      7.86496     17.35022         0.374882     -0.296951      0.118457
Pb       7.57308      7.64776      8.59432         0.685774      0.032896      0.703049
Pb       7.87751      7.81145     12.99814        -0.626927      0.209492      0.105364
Pb       7.76653     11.57351      4.41948        -0.153854      0.221563     -0.225882
Pb       7.72201     11.68451     17.22766        -0.016416     -0.323816      0.529142
Pb       7.95488     11.49293      8.61515        -0.726940      0.150750      1.086086
Pb       7.59187     11.57389     12.81911         0.686416      0.554542      0.939721
Pb      11.45133      3.84826      4.36119         0.486533      0.164748     -0.034990
Pb      11.50591      3.73447     17.22526        -0.162547      0.079459      0.843784
Pb      11.58058      0.03609      4.35489        -0.193706     -0.057070     -0.218337
Pb      11.56996     15.27529     17.22412        -0.164152      0.710545      0.259681
Pb      11.54645      3.85406      8.70243         0.494661     -0.217925     -0.574252
Pb      11.64244      0.00997      8.61751         0.234741      0.035892     -0.163957
Pb      11.47871      3.88189     12.86280         0.429204     -0.382110      0.526440
Pb      11.43584      0.07971     12.95205        -0.155399     -0.626040      0.261190
Pb      11.51352      7.68051      4.17477        -0.433636      0.411182      1.184677
Pb      11.46202      7.61188      0.05205         0.234386      0.175704     -0.151583
Pb      11.41140      7.71108      8.56618         0.382215      0.818782      0.566920
Pb      11.60815      7.50995     12.94882        -0.403520      0.500117      0.288125
Pb      11.61873     11.69654      4.35164        -0.529175     -0.231499      0.356753
Pb      11.61848     11.65108     17.31516        -0.961092     -0.633101      0.613133
Pb      11.76493     11.74182      8.70285        -0.259297     -0.770832     -0.335045
Pb      11.54987     11.48346     12.87413        -0.645444      0.664501      0.923641
Ti       1.88592      1.89459      2.29424        -0.283379     -0.944253      1.019265
Ti       1.79412      1.89750     15.32564        -0.129350     -0.495718     -1.018453
Ti       1.91287     13.44863      2.33984         1.013129      0.465600      0.789482
Ti       1.91888     13.50936     15.28663        -0.274282      0.290689      0.573656
Ti      13.47476      1.91645      2.31459        -0.672204     -0.319707     -1.272343
Ti      13.43435      1.88559     15.34421         0.313508     -0.323515     -0.818062
Ti      13.44328     13.48960      2.31899         0.687171      1.033971      0.411517
Ti      13.55837     13.32259     15.33914        -0.461459      2.421109     -2.289748
Ti       1.87783      1.97768      6.70865         0.568183     -0.354632     -1.748552
Ti       1.99223     13.55535      6.66745        -0.468319     -0.348057     -0.111615
Ti      13.49688      1.91770      6.64768         0.011466      0.384583      0.115370
Ti      13.59390     13.51507      6.58690        -0.732990      0.845327      0.435950
Ti       1.90842      1.94964     11.12397        -1.473503      0.257730     -0.287131
Ti       1.85717     13.52828     11.08802        -0.198008     -1.309714      0.817150
Ti      13.45580      1.88607     11.07404        -0.042144      0.168224     -0.750498
Ti      13.48941     13.46826     11.02443         0.462116      0.198930      0.538352
Ti       1.93623      5.70773      2.41045         0.199831      0.692163     -0.991694
Ti       1.90274      5.78847     15.39251         0.340870      0.666643      0.506633
Ti      13.53322      5.82181      2.42908        -1.249470     -0.448834     -0.697032
Ti      13.49700      5.76529     15.46964         0.439762      0.584055     -1.701391
Ti       1.87098      5.78397      6.57679        -0.284274      0.023761      0.887710
Ti      13.42441      5.83909      6.65203         0.953008     -0.196078     -0.463012
Ti       1.94822      5.72083     11.02051        -0.696897      0.726931     -0.189027
Ti      13.54768      5.78061     10.91511        -0.595291     -0.355502     -0.465098
Ti       1.99721      9.59854      2.36754         0.157083      1.746967     -0.677213
Ti       1.89085      9.65495     15.45485         1.633155     -0.111659     -1.402446
Ti      13.48664      9.64252      2.52483        -0.269214      0.710551     -0.939480
Ti      13.54178      9.64045     15.48058        -0.683536     -1.463659     -1.161288
Ti       1.98493      9.65437      6.72044         0.287309      0.466379     -0.091955
Ti      13.56563      9.70446      6.57757        -0.616363     -0.490042      0.642687
Ti       1.90637      9.54707     11.05304        -0.303468      1.463565     -1.664550
Ti      13.41311      9.54908     11.03155         0.515403      0.550774      0.362280
Ti       5.81234      1.90111      2.37628         0.728757     -0.566410     -1.130704
Ti       5.63209      1.96361     15.25613         1.089736     -0.954434      0.915201
Ti       5.79722     13.48367      2.33345        -0.618876      0.519864     -0.932882
Ti       5.74439     13.56375     15.31605         0.125152      0.186686     -1.277227
Ti       5.85280      1.83848      6.72332        -0.545361      1.599644     -2.253771
Ti       5.81412     13.53014      6.81640        -0.274027     -1.082790     -0.878583
Ti       5.77426      2.01317     10.96705        -0.216402     -0.652319      0.532251
Ti       5.74181     13.58020     11.03155         0.665188     -0.349390     -0.906715
Ti       5.80619      5.79665      2.26156         0.318700     -1.063385     -0.815064
Ti       5.81277      5.87529     15.37867        -0.469217     -0.117135     -1.305549
Ti       5.71027      5.80598      6.67851         0.716446     -0.287721     -0.909394
Ti       5.86348      5.78249     11.04987        -0.309904      1.149275     -1.308786
Ti       5.83971      9.61924      2.37640         0.486527      1.174452     -0.299414
Ti       5.87666      9.64070     15.36852        -0.631325      0.701457     -2.303619
Ti       5.81520      9.69625      6.88623        -0.774682     -0.210808     -2.678737
Ti       5.78958      9.64011     10.94108         0.354424     -0.443686      1.252804
Ti       9.66632      1.93020      2.35426         0.543859     -0.777241     -2.084978
Ti       9.60370      1.89929     15.32016        -0.519090     -0.974759     -0.825901
Ti       9.67800     13.54366      2.38707        -0.867894      0.517827     -0.381035
Ti       9.65382     13.46488     15.37507        -0.284112      0.620488     -2.778179
Ti       9.66209      1.91096      6.67473         0.843384      0.128254     -0.368234
Ti       9.67276     13.46334      6.81384         0.767885      0.982249     -1.795364
Ti       9.48363      1.93993     10.89056         1.829407     -0.352839      0.170053
Ti       9.65924     13.57063     10.84329        -0.689030     -0.398315      0.803847
Ti       9.66322      5.72873      2.28102        -0.140804      0.314311     -1.192630
Ti       9.62158      5.76618     15.36733        -0.302484      0.099396     -0.213244
Ti       9.62925      5.80140      6.67660        -0.756244     -0.337636     -1.672651
Ti       9.62681      5.74588     10.94493        -0.410152      1.419547     -0.718556
Ti       9.64766      9.75379      2.31451        -0.145522     -0.337767     -0.466024
Ti       9.73584      9.65660     15.28747        -0.695126      0.414763     -0.362563
Ti       9.69906      9.64766      6.66033         0.347046      0.607874      0.512565
Ti       9.63444      9.67524     10.98166         0.029394     -0.119304     -1.893380
O       1.80583      1.93380      0.56121         0.186922     -0.029221     -0.040161
O       1.81100      1.86089     13.52970         0.354743      0.069992      0.723757
O       1.98501     13.48352      0.62480        -0.399511     -0.000658     -0.606342
O       1.79678     13.43667     13.52649         0.501432      0.219478      0.117745
O      13.53365      1.90962      0.48272        -0.050044     -0.165558      0.528733
O      13.33760      2.18632     13.57184         0.244376     -0.626791      0.380133
O      13.56705     13.66700      0.54721        -0.381965     -0.683263     -0.008081
O      13.39765     13.31085     13.54415         0.559216     -0.200919      1.103016
O       1.91640      1.93580      4.92269        -0.133580      0.183249      0.341251
O       2.05019     13.46919      4.94084        -0.467499      0.251069     -0.025398
O      13.48670      1.97973      4.86489         0.040115      0.012927      0.335328
O      13.52817     13.53588      4.84002        -0.095584     -0.020379     -0.731672
O       1.87120      2.04755      9.37233        -0.033441     -0.297315     -0.348877
O       1.67861     13.51817      9.38404         0.242446      0.165514     -1.425967
O      13.36061      1.90604      9.28129         0.381986     -0.198042      0.848999
O      13.54665     13.59057      9.25669        -0.240613     -0.110959      0.236436
O       1.85280      5.79413      0.66102        -0.172692     -0.065877      0.091387
O       1.91259      5.99415     13.68309         0.112848     -0.376455     -1.079225
O      13.54300      5.86580      0.66818        -0.238451      0.070018     -0.281980
O      13.52080      5.73230     13.63867        -0.507817      0.125041      0.975903
O       2.01732      5.72880      4.86601        -0.269349      0.393354     -1.184995
O      13.45076      5.65636      4.86021        -0.069352      0.334253      0.651765
O       1.84400      5.76173      9.26188         0.456548     -0.053186      0.366427
O      13.40818      5.85667      9.14131         0.343850     -0.140751      0.756580
O       2.03739      9.60320      0.56914        -0.484201      0.261125      0.792523
O       1.83449      9.56744     13.60746         0.189642      0.262489      1.077549
O      13.41843      9.71561      0.76197         0.543738     -0.377159     -0.224557
O      13.61861      9.67154     13.69536        -0.512185     -0.097319      0.650206
O       2.20106      9.63419      4.95279        -0.613160      0.001426      0.821139
O      13.49541      9.72467      4.82696         0.294964      0.166161     -0.231840
O       1.93105      9.70347      9.24269        -0.022939     -0.383521      0.795190
O      13.46368      9.56730      9.33039        -0.086738     -0.071518     -1.104180
O       5.83252      1.87891      0.58078        -0.037345      0.300897      0.096774
O       5.67242      1.91993     13.52397        -0.102105      0.160048     -0.359140
O       5.75920     13.50796      0.54476         0.095713     -0.047735      0.091662
O       5.80988     13.61705     13.45860        -0.334006     -0.389459      1.575567
O       5.86998      1.77209      4.89099        -0.213894      0.410031      1.130443
O       5.86337     13.52337      5.02689        -0.090535      0.069887      0.486193
O       5.67477      2.06346      9.20242         0.363305     -0.387212      0.322669
O       5.84999     13.53528      9.20987        -0.388862      0.603405      1.111289
O       5.68510      5.84070      0.49469         0.870222     -0.482785      0.389350
O       5.85623      5.89763     13.54503        -0.278042     -0.300897      1.143709
O       5.85756      5.80642      4.91023        -0.329086      0.084414      0.268616
O       5.91755      5.73641      9.17585        -0.444217      0.073752      2.033185
O       5.93447      9.80957      0.62989        -0.029162     -0.573891     -0.339954
O       5.95475      9.59231     13.52237        -0.660997      0.166092      1.383707
O       5.65109      9.65007      4.98862         0.563657      0.164170      1.117304
O       5.90642      9.71725      9.19632        -0.482759     -0.142420     -0.748200
O       9.70070      1.89805      0.50696        -0.477891      0.187946      0.696090
O       9.46732      1.72555     13.53279         0.704375      0.650560      0.796634
O       9.74099     13.58404      0.63583        -0.019294     -0.045105     -0.688784
O       9.58866     13.58839     13.57943         0.345728     -0.199536      0.926111
O       9.78085      1.91684      4.88375        -0.249045      0.292143     -0.028464
O       9.66303     13.40844      4.99753        -0.157819      0.239631     -0.058685
O       9.44416      1.94788      9.13968         0.487908      0.243745     -0.419611
O       9.58355     13.55816      9.02319         0.300888      0.330815      0.836366
O       9.65695      5.76458      0.45637         0.265578     -0.156851      0.426163
O       9.61928      5.76152     13.57349         0.068694      0.257257      0.111684
O       9.57740      5.67711      4.81653         0.240704      0.413096      1.612425
O       9.54364      5.87912      9.16729         0.128893     -0.564310      0.334640
O       9.51702      9.75888      0.53642         0.397046     -0.428411      0.675158
O       9.71260      9.67404     13.49217        -0.186085     -0.184757      0.531652
O       9.66295      9.66317      4.91177        -0.220099      0.321327     -0.537572
O       9.66116      9.75609      9.11817        -0.038305     -0.378188      1.454651
O       3.92638      1.89335      2.67381        -1.219484     -0.165072     -0.187192
O       3.73708      1.76826     15.81214         1.049529      1.305732     -0.848336
O       3.88538     13.62597      2.79931         0.318059     -0.428551     -0.319259
O       3.80195     13.56513     15.79275         0.855548     -0.250548     -0.671831
O      15.41122      2.00239      2.70310         0.529370     -0.473847     -0.120294
O      15.39675      1.95097     15.69563        -0.261386     -0.006900      0.215503
O      15.41042     13.52352      2.74264         0.056500     -0.455190     -0.136556
O      15.42187     13.52385     15.78214         0.040547     -0.355962     -0.008568
O       3.76412      2.05034      6.96328         1.410274     -0.697996      0.658278
O       3.81843     13.62432      7.08166         0.892394     -0.314497      0.417245
O      15.44971      2.09805      7.08876        -0.809968     -0.926888      0.005682
O      15.39137     13.56916      6.99492         1.340823      0.220616      0.259232
O       3.75239      1.93523     11.48801         1.425980      0.368592     -0.537716
O       3.83208     13.57304     11.33347         0.174398     -0.109718      0.133525
O      15.36424      1.97246     11.49443        -0.223262     -0.331901     -0.432543
O      15.36756     13.37288     11.44142        -0.413048      0.219446      0.021939
O       3.89601      5.84958      2.47834         0.081346     -0.007539      1.051012
O       3.84481      5.87305     15.70900         0.672630     -0.193775      0.254509
O      15.36625      5.88965      2.76179         1.049067     -0.467684      0.246062
O       0.02674      5.93046     15.68054        -0.912167     -0.305957      0.785080
O       3.79642      5.78493      7.06204         0.358629      0.352499     -0.006100
O      15.41814      5.83650      7.01939        -0.140052     -0.229961     -0.264614
O       3.81831      5.86907     11.47873         0.562279     -0.505081     -0.561956
O      15.39386      5.78720     11.43794         0.148194     -0.450230     -0.717480
O       3.99752      9.58554      2.66376        -0.823900     -0.272338      0.218816
O       3.91414      9.67103     15.77169         0.273195      0.062972     -0.144528
O       0.08819      9.77756      2.86490        -1.037815     -0.539108     -0.436940
O       0.03127      9.60476     15.80209        -1.209575      0.587396      0.427288
O       3.89014      9.78301      7.23561        -0.620801     -0.593963     -0.005927
O      15.43600      9.65331      7.14300        -0.146173      0.245526     -0.707417
O       3.87001      9.57605     11.39175         0.221215      0.195478     -0.259069
O      15.43289      9.52992     11.35718        -0.960904      0.713990      0.304334
O       7.78870      2.03525      2.74738         0.080042     -0.481153     -0.132063
O       7.65378      1.74753     15.63531        -0.230625      0.961682      0.243777
O       7.65940     13.52909      2.68114         1.529544     -0.420757      0.567160
O       7.72180     13.50189     15.69023        -0.561135      0.394680      0.230259
O       7.77033      1.99456      6.92543        -1.295304     -0.109068      0.213530
O       7.73048     13.51427      7.08199        -0.130436      0.486339      0.052924
O       7.70436      2.06223     11.33462        -2.371026     -0.563580      0.075255
O       7.75379     13.50039     11.35616        -0.858297      0.381897     -0.392384
O       7.79692      5.67428      2.57623        -0.736021     -0.313084      0.385073
O       7.72120      5.68911     15.74716        -0.642740      0.297724      0.052638
O       7.66666      5.82779      7.06980         0.207768     -0.484863     -0.279689
O       7.72766      5.86000     11.57124        -0.560792     -0.640631     -1.038693
O       7.75184      9.68470      2.81846         0.427427      0.349159      0.147404
O       7.73438      9.66911     15.65979         0.561858      0.292982      0.461120
O       7.68152      9.79826      6.99210         0.632562     -0.000293      0.018078
O       7.73935      9.74095     11.37935        -0.504753     -0.446745     -0.291921
O      11.57702      1.76862      2.65379         0.371362      0.089518      0.421272
O      11.53915      1.90601     15.67615        -0.049138      0.358799      0.023579
O      11.56041     13.63092      2.79151         0.650424      0.006250     -0.090245
O      11.62609     13.43692     15.63952         0.120353      0.024490      0.841843
O      11.58092      1.96786      7.10233         0.146780     -0.011921      0.088542
O      11.60545     13.51438      7.09026         0.391870      0.580969      0.168875
O      11.42205      1.95611     11.36443         0.758925     -0.003551      0.017351
O      11.50245     13.66322     11.30568         0.249751     -0.450686     -0.217954
O      11.53192      5.89204      2.78580         1.191594     -0.617575     -0.456786
O      11.50817      5.78625     15.71277         0.706857     -0.072150      0.278489
O      11.52143      5.85972      7.05210        -0.179571      0.184340     -0.176699
O      11.50546      5.79620     11.30781         0.371145     -0.233346      0.070231
O      11.50008      9.66628      2.76648         0.931882     -0.308586      0.042018
O      11.56483      9.75475     15.73647         0.985483     -0.553134      0.175686
O      11.58648      9.61523      7.05417         0.433106      0.306479     -0.216327
O      11.50348      9.49495     11.40002         0.414702      0.118047      0.187710
O       1.89371      3.87489      2.76942         0.225693     -0.726224     -0.244313
O       1.91443      3.82998     15.67452         0.202648      0.245405      0.140231
O       1.97968     15.41542      2.77929        -0.739907      1.293147     -0.399956
O       1.91033     15.45790     15.76050        -0.611779     -0.219682     -0.124228
O      13.38605      3.76931      2.58230         0.409341      1.589978      0.602202
O      13.57327      3.90446     15.88627        -0.595778     -0.170317     -0.413232
O      13.54812     15.46121      2.74889        -0.155832     -0.215884     -0.223220
O      13.51667     15.44908     15.50056        -0.058307      0.125044      0.533109
O       1.90431      3.90937      7.06500        -0.130689      0.248324      0.099511
O       2.00610      0.05157      7.21026        -1.071207     -0.073063     -0.162173
O      13.46225      3.89022      7.12163        -0.305318      0.220995     -0.143140
O      13.51743      0.01872      6.93791        -0.117217      0.576978      0.447268
O       1.87484      3.86295     11.57429         0.270945      0.521394     -0.378634
O       1.77760     15.41597     11.45117         0.228530      0.655463     -0.283054
O      13.46101      3.87803     11.41705        -0.400371      0.211714     -0.531574
O      13.51646     15.43321     11.52565        -0.327124      0.211943     -0.574270
O       1.92441      7.80276      2.79563        -0.019736     -1.490044      0.021796
O       2.03651      7.82417     15.94598        -0.640200     -0.786552     -0.249108
O      13.49933      7.77477      2.93560         0.311402     -0.256132     -0.690459
O      13.48109      7.69700     15.84722        -0.216451      0.754009      0.083701
O       1.84269      7.74625      7.10994         0.643250     -0.245707     -0.134437
O      13.54110      7.76614      7.01813        -0.257763     -0.211075     -0.215982
O       1.77274      7.71990     11.30373         0.853598     -1.470101      0.329821
O      13.46335      7.63727     11.48715        -0.147197     -0.261532     -0.369912
O       2.01905     11.57975      2.77608        -0.102581     -0.288681     -0.048782
O       1.92396     11.65241     15.79008        -0.279383     -0.891108     -0.065938
O      13.38710     11.65912      2.75163         0.542818     -0.574543     -0.066755
O      13.51574     11.54964     15.96521         0.571369     -0.686009     -0.596673
O       1.83324     11.61820      7.16788         0.611851      0.247851     -0.663312
O      13.49741     11.65178      6.94614        -0.033449     -1.080379      0.368395
O       1.98924     11.50725     11.47501        -0.269045      0.370835     -0.030035
O      13.26412     11.45892     11.39290         0.929376      0.891435     -0.655390
O       5.83185      3.75216      2.80638        -0.180822      1.481831     -0.266856
O       5.62590      3.87156     15.68049         0.655355     -0.741100     -0.213832
O       5.90931     15.44650      2.71987        -0.180617      0.320806      0.266077
O       5.70608      0.00430     15.76830         0.174897     -0.156688     -0.376044
O       5.64020      3.79873      7.02437         1.044737      0.537801     -0.133767
O       5.70791      0.03921      7.18884         0.946682     -0.244811     -0.473900
O       5.75402      3.86109     11.44449        -0.231051      0.387188     -0.158535
O       5.71972      0.04227     11.50705         0.261588      0.628530     -1.405575
O       6.03401      7.68461      2.69832        -0.816711     -0.214458     -0.260718
O       5.91676      7.75900     15.79470        -0.411197     -0.352035     -0.019470
O       5.75881      7.75393      7.09380        -0.302286     -0.404210      0.023323
O       5.81482      7.73800     11.37069         0.159654     -0.569814     -0.452150
O       5.74494     11.64102      2.78561         0.622280     -1.142774     -0.062678
O       5.80622     11.61888     15.72034        -0.102797      0.229103     -0.259266
O       5.76293     11.66536      7.22264        -0.096824     -0.186652     -0.404685
O       5.72077     11.55640     11.33656        -0.195542      0.692028     -0.001590
O       9.93283      3.81362      2.60420        -0.886456      0.190793      0.192996
O       9.52479      3.82556     15.58706         0.469555     -0.602397      0.364221
O       9.62277      0.00740      2.75563        -0.181497     -0.082336      0.338576
O       9.71836     15.37767     15.73227        -0.142193      0.652578      0.248293
O       9.71339      3.92706      6.99980        -0.366582     -0.083126      0.273143
O       9.65041      0.08021      7.02915        -0.050471     -0.820848      0.284671
O       9.51140      3.86267     11.38525         0.407902      0.537103     -0.341875
O       9.52592      0.02441     11.21503        -0.067324     -0.026081      0.022659
O       9.69001      7.65325      2.57600        -0.602370      1.031647      0.305240
O       9.59868      7.76597     15.75484         0.255577     -0.450472     -0.119592
O       9.46783      7.83703      7.06001         0.567387     -1.524053     -0.258971
O       9.55499      7.74672     11.26667         0.137358     -0.712047      0.337488
O       9.82877     11.65789      2.61866        -0.860537     -0.682794      0.640417
O       9.71531     11.55799     15.77480        -0.454850      0.306450     -0.110204
O       9.75430     11.66407      7.13583        -0.237168     -1.519445     -0.298326
O       9.63461     11.61532     11.21482         0.544613      0.361734      0.198237
