  # total energy = -7882.21715883 
CRSYTAL
PRIMVEC
    15.464    0.0000000000000000    0.0000000000000000
     0.0000000000000000   15.464    0.0000000000000000
     0.0000000000000000    0.0000000000000000   17.350608
PRESSURE
-0.049168 -0.257165 0.020502 -0.29691 -0.031147 -0.037146
PRIMCOORD
320 1
Pb       3.86416      4.01510      4.26248         0.337687     -0.784428      0.870578
Pb       3.88389      3.96184      0.06909         0.129844     -0.792220      0.083366
Pb       3.78726     15.38953      4.27968         0.923744      0.149194     -0.427889
Pb       3.85872     15.43766     17.17541         0.400234     -0.482900      0.680121
Pb       0.17341      3.77578      4.36263        -0.592224     -0.055504     -0.296023
Pb       0.00771      3.73658     17.31523        -0.700139      0.318563      0.204439
Pb       0.14926     15.43743      4.31314        -1.069571      0.292613     -0.269518
Pb       0.05712     15.35513     17.27453        -0.798771      0.075287      0.374584
Pb       3.73900      3.95637      8.62729         0.447473     -0.282606     -0.153061
Pb       3.75140     15.36157      8.72096         0.398638      0.344654      0.145470
Pb       0.02146      3.73426      8.64664        -0.715872      0.427047     -0.304489
Pb      15.40142     15.35092      8.53482        -0.174092      0.352144      1.000714
Pb       3.69405      3.82851     12.96529         0.498287     -0.196279     -0.187943
Pb       3.79150     15.29419     13.01975         0.422327      0.667517     -0.126418
Pb       0.09235      3.92589     12.98125        -1.016321     -0.090790      0.207716
Pb       0.01414      0.14275     12.94666        -0.546900     -0.445893      0.523720
Pb       3.70873      7.85252      4.31282         0.812603     -0.430143     -0.051679
Pb       3.66413      7.58412      0.01353         0.845650      0.501042     -0.062217
Pb      15.36047      7.70453      4.24697         0.577960     -0.066934      0.078785
Pb      15.40720      7.66296     17.31985         0.038853     -0.281335     -0.226052
Pb       4.00582      7.85365      8.56348        -0.513593      0.005482      0.431653
Pb       0.15709      7.62762      8.53506        -0.728415      0.702327      0.823635
Pb       3.76235      7.60346     13.05903         0.421327      0.407233     -0.308065
Pb       0.03574      7.88693     12.98613        -0.646216     -0.484055      0.238931
Pb       3.78380     11.63920      4.23810         0.669551      0.134114      0.261296
Pb       3.77553     11.59319     17.26979         0.735178      0.326498      0.076459
Pb       0.01404     11.56143      4.25173         0.034998      0.122402      0.304653
Pb       0.07569     11.59496     17.20755        -0.399096     -0.079619      0.202767
Pb       3.82576     11.60770      8.45314         0.323458      0.140897      1.342358
Pb      15.36453     11.48072      8.60274         0.078456     -0.141316     -0.025204
Pb       3.76827     11.51337     13.02186         1.092355     -0.223472     -0.156577
Pb      15.46370     11.86485     12.88970        -1.125849     -1.323366      0.968662
Pb       7.63697      3.78644      4.27016        -0.160241      0.317482      0.505316
Pb       7.73368      3.96753     17.29126        -0.020016     -0.317305      0.396296
Pb       7.78882     15.43050      4.30148        -0.429184     -0.186870      0.087026
Pb       7.67674     15.38768     17.25075        -0.161677      0.264379      0.646437
Pb       7.69065      3.90157      8.77296         0.090603      0.040597     -0.412750
Pb       7.62143      0.13892      8.67661         0.462745     -0.483719      0.307597
Pb       7.60476      3.81022     12.92655         0.517860      0.311057     -0.110841
Pb       7.81575     15.45381     12.93613        -0.069063     -0.159850      0.056111
Pb       7.65781      7.75415      4.32262         0.112650     -0.255139      0.139776
Pb       7.69816      7.64193     17.28857         0.084975     -0.067282     -0.118687
Pb       7.81848      7.74444      8.65917         0.021252      0.187002     -0.108828
Pb       7.51664      7.66554     12.97641         0.799252      0.064710      0.382425
Pb       7.78142     11.58037      4.19851        -0.247306      0.270314      1.020795
Pb       7.72668     11.48685     17.30128         0.034674     -0.218285     -0.303650
Pb       7.57783     11.62255      8.65660         0.047619     -0.082763      0.015828
Pb       7.76322     11.53837     13.07490        -0.250764     -0.004819     -0.528910
Pb      11.52588      3.77797      4.28677         0.087423      0.299585     -0.047412
Pb      11.58433      3.89683      0.06448        -0.145226      0.011229      0.233569
Pb      11.63229     15.39091      4.23786         0.150692     -0.175832      0.204846
Pb      11.51522      0.13273     17.33242         0.356923     -0.473424      0.670351
Pb      11.67788      3.93556      8.55861        -0.007070     -0.925284      0.077909
Pb      11.53504     15.41305      8.64992         0.070783      0.222766     -0.152716
Pb      11.59884      3.87188     13.03997        -0.178504      0.038090     -0.013867
Pb      11.71942     15.40660     12.95226        -0.477871     -0.224780      0.473814
Pb      11.71785      7.69858      4.34479        -1.197419      0.046289      0.051387
Pb      11.71867      7.83244     17.22398        -0.759257     -1.087385      0.464763
Pb      11.70516      7.70151      8.67537        -0.584939      0.535038     -0.125628
Pb      11.57129      7.83809     13.02410        -0.033849     -0.753359      0.197638
Pb      11.65266     11.41266      4.26375        -0.723406      0.903347      0.547454
Pb      11.51954     11.52391     17.18961         0.065637      0.210190      0.633742
Pb      11.42966     11.47686      8.59556         0.097822      0.335737     -0.289927
Pb      11.63287     11.60228     12.97809        -0.343468      0.356339      0.221388
Ti       2.01548      1.86297      2.25720        -0.387592      0.302993      1.480887
Ti       1.84332      1.87166     15.38969         1.533936     -0.099442     -1.846851
Ti       1.92063     13.50501      2.24911         0.662427     -0.407709     -0.178127
Ti       1.91529     13.54030     15.19000         0.585788     -1.027025      2.176273
Ti      13.55443      1.92401      2.32241         0.286849     -0.795335     -0.247678
Ti      13.45590      1.92337     15.31442         0.315995     -0.813607      0.630591
Ti      13.56165     13.45369      2.40595        -0.480880      1.055710     -0.982512
Ti      13.49292     13.54134     15.40920        -0.806641     -0.056187     -1.018781
Ti       1.90805      1.93283      6.70438         0.284913      0.274612     -0.622366
Ti       1.88172     13.58857      6.59451         0.288866     -1.655708     -0.592076
Ti      13.57120      1.88637      6.63297        -0.916580      0.755459      0.348860
Ti      13.52819     13.57476      6.65493        -1.560133     -1.646465      0.102704
Ti       1.83315      1.91755     11.02367         0.021169     -0.342485      0.535929
Ti       1.85025     13.46648     11.00288         1.132465      0.922574     -0.653742
Ti      13.42183      2.01429     11.04470         0.992156     -0.744138     -0.458570
Ti      13.51268     13.52352     10.88971        -1.102568      0.201488      0.526406
Ti       1.91429      5.75928      2.35418        -0.571579      0.078869      0.304963
Ti       1.88395      5.65114     15.31689        -0.591102      1.244333      0.936615
Ti      13.41560      5.76678      2.47340         0.357315     -0.494164     -1.664861
Ti      13.49810      5.72150     15.34696         0.070163      0.415990      0.418090
Ti       1.88874      5.85802      6.61625         0.177417     -1.179928      0.062033
Ti      13.48388      5.89970      6.65090         0.614286     -1.379841      0.636404
Ti       1.91927      5.81283     10.92200        -0.513567      0.635777     -0.233797
Ti      13.56795      5.78408     10.94857        -0.300778      0.190651      1.049660
Ti       1.91848      9.65119      2.27010        -0.216497     -0.105840      0.281463
Ti       2.03249      9.60846     15.33876        -0.992537     -0.547500     -0.145615
Ti      13.52622      9.63969      2.31145        -0.601851     -0.276090      0.492886
Ti      13.57897      9.66699     15.35741         0.695819     -0.297857     -1.580103
Ti       1.97108      9.70611      6.56614        -0.665123      0.027728     -0.064333
Ti      13.54297      9.68370      6.64909        -0.216786      0.188708      2.202943
Ti       1.81477      9.65434     10.97794         0.821113     -0.597341     -1.182214
Ti      13.47128      9.67707     11.01864         0.628171     -0.976861     -0.108274
Ti       5.73219      1.88397      2.27136         0.453909     -0.210502      2.905626
Ti       5.76737      1.94942     15.34027        -0.148171     -0.796508      0.574026
Ti       5.86263     13.52781      2.24620        -1.557897      0.137289      0.027839
Ti       5.88789     13.45706     15.34330        -1.306319     -0.313171     -1.031690
Ti       5.68500      1.95775      6.70224        -0.001479      0.794064     -0.319187
Ti       5.74772     13.64660      6.62038         0.825062     -1.309477     -0.725156
Ti       5.68718      1.88946     11.06589         0.337922     -0.537690      0.128860
Ti       5.78975     13.49190     11.07210         0.704996     -1.119049     -0.285003
Ti       5.79849      5.81003      2.36043        -0.528946     -0.213122     -0.443909
Ti       5.68184      5.69676     15.40401         1.402819      2.085677     -1.275315
Ti       5.77510      5.84664      6.75166         0.340580     -0.727943     -1.391457
Ti       5.77936      5.78095     10.96091         0.202693     -0.082991      0.895384
Ti       5.71989      9.66311      2.32415         0.733311     -0.173362      0.054844
Ti       5.77736      9.58702     15.44743         0.836832     -0.182393     -0.823660
Ti       5.77037      9.73474      6.58821         0.373777     -0.305333     -0.673839
Ti       5.67265      9.63961     11.06869         0.718321      0.966473      0.220317
Ti       9.63893      1.87029      2.43143         0.012307      0.668255     -1.282113
Ti       9.62074      1.93695     15.36015        -0.127338     -0.523039     -0.710629
Ti       9.67319     13.46035      2.26194         0.361558      0.122852      0.324461
Ti       9.70780     13.56741     15.41193         0.094557     -0.758445     -0.724789
Ti       9.59372      1.92787      6.66171         0.817117     -0.025049      0.805214
Ti       9.60780     13.51253      6.71373         0.245612     -0.480615     -0.578318
Ti       9.68727      1.96542     10.95220        -0.192840     -0.210879      0.259968
Ti       9.68409     13.56474     10.95873        -0.477981     -0.502619     -0.756665
Ti       9.55905      5.76265      2.30559         1.227858      0.197879      0.393286
Ti       9.70230      5.70670     15.30354        -0.665620      1.484584      1.209502
Ti       9.61169      5.74088      6.71475        -0.143396      0.732523     -0.425250
Ti       9.72640      5.76890     11.04140        -0.938702     -0.119460      0.553550
Ti       9.58380      9.55051      2.27006         0.934604     -0.213450      0.262701
Ti       9.66737      9.55894     15.29412        -0.964443     -0.119787      0.663402
Ti       9.65911      9.59311      6.58446        -0.352310      0.364314      1.880434
Ti       9.62003      9.62949     11.00930        -0.735078      0.268731     -0.826819
O       2.06109      1.71737      0.54780        -0.769828      0.506390     -1.042747
O       1.93235      1.85075     13.56027        -0.125032      0.154915      1.141383
O       1.90768     13.42387      0.46932        -0.244842      0.114969      0.292594
O       1.90527     13.55078     13.46562        -0.115238     -0.137471     -1.054120
O      13.61205      1.83399      0.53094        -0.212296      0.282576      0.359419
O      13.50255      1.80445     13.57785        -0.014643      0.643865     -0.091772
O      13.58179     13.47055      0.65107         0.103985     -0.069326     -0.310885
O      13.25923     13.43592     13.63060         0.974477     -0.095870      0.583642
O       1.87286      1.80644      4.91219         0.065190      0.129243      0.279114
O       1.90263     13.43910      4.78261         0.002641      0.762288      1.492433
O      13.66607      1.70996      4.90294        -0.279936      0.494845     -0.494674
O      13.53202     13.51440      4.91713         0.060135      0.091543     -0.990892
O       1.77202      1.99169      9.29204         0.156644     -0.273839     -0.709190
O       1.97736     13.46631      9.24113        -0.247318      0.044015      0.436822
O      13.45640      1.96246      9.26652         0.408165      0.066919      0.690334
O      13.49860     13.52174      9.15387         0.205865     -0.109939     -0.135895
O       1.97724      5.83495      0.60393        -0.400620     -0.324581     -0.539053
O       1.89256      5.84852     13.58693         0.136942     -0.605035     -0.549308
O      13.44893      5.92297      0.68579        -0.143983     -0.640290      0.132258
O      13.65042      5.64580     13.65071        -0.270714      0.067636     -0.849554
O       1.97983      5.66062      4.86745        -0.443320      0.724021     -0.265632
O      13.40448      5.86865      4.91020         0.249854      0.053293     -0.806531
O       1.91768      5.86173      9.14502        -0.166064     -0.364173      0.321675
O      13.57479      5.73998      9.19886        -0.123810      0.134603     -0.317709
O       1.94415      9.64384      0.50766        -0.056454      0.047807     -0.038935
O       2.05771      9.55493     13.55841        -0.451838      0.253108      0.711387
O      13.39368      9.55247      0.58728         0.485488      0.210315     -0.896169
O      13.72569      9.69860     13.57003        -0.592650     -0.114974      0.577321
O       2.03553      9.63881      4.76577        -0.334500      0.102665      0.990895
O      13.47791      9.57933      4.96235         0.194427      0.029402     -2.300059
O       1.85596      9.63080      9.16228         0.241939      0.232119      1.120007
O      13.50145      9.64507      9.26065        -0.193702      0.069174     -0.127056
O       5.69894      2.07665      0.60889         0.114910     -0.141741     -2.326063
O       5.88702      1.82692     13.60594        -0.389403      0.752490     -0.517972
O       5.72557     13.55828      0.46709         0.469476     -0.459387      0.364139
O       6.02153     13.33402     13.54614        -0.780124      0.559790      1.041044
O       5.58744      2.02022      4.94679         0.361543     -0.584901      1.053515
O       5.74470     13.57930      4.84093        -0.002476      0.401798      1.119653
O       5.65863      1.69995      9.33552         0.118393      0.381075     -0.022492
O       5.81883     13.36203      9.27230        -0.374412      0.801002      0.503754
O       5.83168      5.71067      0.59039        -0.518191     -0.386513     -0.121428
O       5.69309      5.80535     13.60547        -0.147894     -0.561654      0.369302
O       5.78712      5.81944      4.94566         0.242858     -0.158182      0.400615
O       5.87108      5.82013      9.22014        -0.601394      0.131729     -0.479273
O       5.80590      9.69530      0.57941         0.060448      0.021449      0.032466
O       5.81356      9.76667     13.66938        -0.203372     -0.709896      0.026862
O       5.61532      9.52273      4.83621         0.458043      0.219930     -0.077885
O       5.65870      9.76670      9.31425        -0.204945     -0.792450     -0.614943
O       9.68660      1.98496      0.64967        -0.017441     -0.278486      0.328423
O       9.69598      1.78680     13.60096        -0.429506      0.378123      0.835374
O       9.65629     13.56987      0.50393        -0.168079     -0.549779      0.429845
O       9.83957     13.65234     13.64975        -0.514386     -0.246049      0.325784
O       9.57562      1.85095      4.88300         0.316753      0.264680      0.190028
O       9.50260     13.55654      4.92243         0.236922      0.216608      0.676639
O       9.81650      2.03501      9.19603        -0.298727     -0.236053      0.571407
O       9.77772     13.58934      9.15297        -0.489923     -0.447080      1.014908
O       9.69957      5.65881      0.56298        -0.213840     -0.121121     -0.601908
O       9.64687      5.63565     13.60960        -0.138893      0.294003     -1.649514
O       9.53501      5.80797      4.96855         0.087645     -0.202052      0.196512
O       9.59512      5.69867      9.29634         0.285705      0.323737     -0.155385
O       9.62108      9.58819      0.50115         0.083029      0.288688      0.408302
O       9.53500      9.59672     13.55998         0.315873     -0.188241     -0.079255
O       9.60361      9.55461      4.87686         0.155788      0.088699     -1.131412
O       9.78592      9.57449      9.12614        -0.552280      0.123310      2.510528
O       3.86135      1.90580      2.74329        -1.068037     -0.797185     -0.197096
O       3.79092      1.90206     15.84575         0.354783      0.302527     -0.787346
O       3.84776     13.61806      2.65049        -0.489530     -0.772443      0.103594
O       3.89795     13.44293     15.62421        -1.035923      0.252440     -0.336192
O      15.42844      1.99381      2.73623         1.220733     -0.373792     -0.126389
O      15.45573      1.85434     15.72240        -0.306583      0.157888      0.237502
O       0.03068     13.42734      2.71593        -0.249758     -0.102736      0.076261
O      15.39542     13.53360     15.67197         1.009774     -0.725340     -0.077883
O       3.75623      1.96695      7.28520         0.571104     -0.704179     -0.560759
O       3.84375     13.58744      6.97409        -0.637478      0.448573      0.130830
O       0.03550      1.90052      7.06212        -0.266089     -0.529405      0.415243
O      15.41900     13.34231      6.98939         1.449900      0.923386      0.171764
O       3.75068      1.94948     11.47447         0.794803     -0.230782     -0.132371
O       3.88419     13.50322     11.51184        -1.063125     -0.041168     -0.412915
O      15.38329      1.90147     11.56869         0.561480      0.472294     -0.830286
O      15.39327     13.56209     11.25297         1.239026     -0.643249      0.306062
O       3.85452      5.76804      2.64042        -0.533683      0.250172      0.256464
O       3.81247      5.76073     15.79539        -1.340836     -0.222580     -0.027778
O      15.41176      5.78590      2.72804         0.804022     -0.372155      0.412126
O      15.42853      5.66175     15.83027         0.718185     -0.032266      0.072026
O       3.87861      5.70220      6.96987        -0.946891      0.316755      0.610128
O      15.40956      5.78040      6.93445         0.923964      0.413827      0.109571
O       3.77787      5.83764     11.26441        -0.160107     -0.525145      0.406176
O      15.39451      5.70922     11.41021         1.302869      0.590621     -0.298251
O       3.87518      9.62663      2.70179        -0.968952      0.009550     -0.301926
O       3.91944      9.55637     15.81910        -1.733918      0.192453     -0.160275
O      15.42000      9.67091      2.69316         0.310669      0.074591     -0.057386
O       0.00490      9.54406     15.72370         0.397327      0.763833      0.288929
O       3.86072      9.70996      6.99300        -0.632755     -1.009951      0.313257
O       0.04698      9.63925      7.01714         0.055943      0.255910     -0.260887
O       3.81844      9.50274     11.50881        -0.539747      0.703968     -0.304133
O      15.41762      9.59228     11.34174         0.170860      0.377270      0.141888
O       7.68628      1.95342      2.85589         0.383658     -0.471129     -0.796041
O       7.70941      1.80397     15.82787        -0.183681      0.946589     -0.531654
O       7.66442     13.61867      2.77623         1.299953     -0.724204     -0.687719
O       7.67919     13.49862     15.74480         0.993587      0.149236      0.251481
O       7.72354      1.97036      7.16255        -0.173151     -0.311585     -0.412209
O       7.69487     13.36476      7.12972        -0.574269      1.387390     -0.371958
O       7.73657      1.88299     11.27763        -0.154526      0.167173      0.261011
O       7.75925     13.42809     11.38467         0.370256      0.397542     -0.107925
O       7.68795      5.77055      2.63639        -0.210881     -0.483736      0.491557
O       7.59309      5.75106     15.74618         1.395203     -0.132910      0.012968
O       7.69829      5.80040      7.26464         0.287062     -0.092566     -0.529054
O       7.66241      5.79302     11.36767         0.433637     -0.521121      0.325044
O       7.76431      9.62580      2.83684        -0.966178     -0.164128     -0.778919
O       7.71028      9.52331     15.81919         0.331478      0.411791     -0.114936
O       7.58441      9.60850      6.97379         1.084940      0.069859      0.165086
O       7.63843      9.67968     11.35974         0.915903     -0.605997     -0.008004
O      11.64348      1.90472      2.68499        -0.858343     -0.043777      0.529558
O      11.54688      1.85134     15.76469        -0.021208      0.310454     -0.138214
O      11.53327     13.40295      2.70942         0.119993      0.315761      0.104915
O      11.58662     13.45853     15.82455         0.000739      0.308147      0.264015
O      11.69657      1.92861      7.08257        -0.905859      0.104094     -0.575938
O      11.58356     13.41077      7.03534        -0.176120      0.495272     -0.111407
O      11.59470      1.91961     11.54631         0.111830      0.190023     -0.706819
O      11.57443     13.46038     11.34963         0.672573     -0.040347     -0.065367
O      11.51986      5.87799      2.79130         0.351600     -0.632877      0.240965
O      11.56860      5.87974     15.60189         0.636018     -1.070261      0.468653
O      11.59028      5.79059      7.07099         0.068283      0.109923     -0.075981
O      11.56724      5.62658     11.41292         0.555774      0.636225     -0.124659
O      11.61809      9.65724      2.80868        -0.527396     -0.639634     -0.604086
O      11.59679      9.58379     15.57381         0.124685      0.272487      0.189244
O      11.56070      9.52398      7.07145         0.474570      0.738976     -0.411225
O      11.59613      9.60270     11.57717        -0.444889      0.295625     -0.906035
O       2.04680      3.81558      2.66054        -0.945012      0.095079     -0.149719
O       1.87706      3.75223     15.66946         0.153995      0.851058      0.242864
O       1.85047     15.37404      2.65241         0.052419      0.959335      0.089503
O       1.89336     15.33716     15.66437         0.141823      0.795013      0.024339
O      13.43270      3.82036      2.70576         0.025385      0.455219      0.256513
O      13.43035      3.78956     15.84533         0.388639      0.155515     -0.159913
O      13.48691     15.40283      2.69745         0.315584     -0.145392      0.246863
O      13.53300     15.44427     15.60373        -0.244452     -0.193626      0.706964
O       1.86212      3.83159      7.00315         0.074195      0.442042      0.287046
O       1.88907     15.44254      7.18425        -0.036788     -0.665686     -0.809365
O      13.65262      3.80183      7.01207        -0.448729      0.674836     -0.073547
O      13.53578     15.39464      7.07848         0.315222      0.537197      0.016545
O       1.84131      3.84534     11.40070         0.450678      0.787309     -0.114488
O       1.88844      0.00450     11.37159         0.170995     -0.908571     -0.091771
O      13.61758      3.85784     11.48864        -0.717380     -0.302712     -0.324283
O      13.62022     15.38938     11.44720        -0.863251      0.259176     -0.581762
O       1.84325      7.76749      2.71726         0.344086     -0.598908     -0.106786
O       1.84022      7.67837     15.68508         0.556118     -0.365129      0.330821
O      13.55172      7.68847      2.78927        -0.167906      0.974724      0.162263
O      13.58357      7.65396     15.67665        -0.135953      0.566255      0.319143
O       1.90309      7.72062      7.01691         0.749814      0.180729     -0.642892
O      13.55083      7.76999      7.14776        -0.053821     -0.783956     -0.392160
O       1.82333      7.78346     11.34824         0.177517     -1.490831      0.038687
O      13.44188      7.66664     11.45031         0.168141      0.013117     -0.179541
O       1.96081     11.54449      2.75298        -0.196359      0.212866     -0.658969
O       1.94820     11.56871     15.68941        -0.237277     -0.116545     -0.440141
O      13.45178     11.54720      2.79970         0.710255     -0.300410     -0.156596
O      13.46994     11.51828     15.83649         0.460505      0.366996     -0.225429
O       2.03377     11.58201      6.94989        -0.720483      0.565874     -0.309090
O      13.51854     11.54103      7.04517        -0.031823     -0.132604      0.099764
O       1.83644     11.54930     11.49905         0.441515      0.647128     -0.644038
O      13.57744     11.52252     11.38575        -0.232804      1.278620     -0.103253
O       5.66030      3.73126      2.87739         0.941892      1.535593     -0.851218
O       5.71437      3.88351     15.80765         0.010243     -1.638423     -0.172613
O       5.75685     15.39789      2.64431         0.054438      0.861664      0.131315
O       5.70591      0.03835     15.72233         0.438557     -0.619026     -0.177223
O       5.77562      3.80830      7.16745        -0.011068      0.319418      0.188789
O       5.85339      0.03536      7.11064        -0.493330     -0.282234     -0.220594
O       5.78217      3.83836     11.36507        -0.468522     -0.268978      0.118482
O       5.84851     15.39000     11.53544        -0.647710      0.487438     -0.382802
O       5.73590      7.66800      2.59386         0.332628      0.643658      0.490664
O       5.77379      7.62374     15.84128        -0.414361      0.576801     -0.109069
O       5.75050      7.71338      7.01809        -0.123917      0.513783      0.435796
O       5.74870      7.61286     11.56275        -0.442019      0.926235     -0.897461
O       5.76071     11.57869      2.81159         0.228086      0.132261     -0.772481
O       5.76935     11.50162     15.79720         0.341265      0.791490      0.167855
O       5.64676     11.62681      6.99996         0.591293     -0.001660     -0.241122
O       5.76285     11.54222     11.40122        -0.450205      0.038109      0.481695
O       9.70833      3.87682      2.76183        -0.196794     -0.683363      0.345078
O       9.61548      3.85063     15.69581         0.252727     -0.980637      0.288093
O       9.71803     15.43610      2.70850        -0.462918     -0.223492      0.026709
O       9.59024     15.39317     15.90995         0.381803      1.038899     -0.502643
O       9.62110      3.86312      7.11508         0.257374     -0.344573     -0.347740
O       9.72659      0.04523      7.17720        -0.730562     -0.236276     -0.675633
O       9.67714      3.80472     11.51999        -0.411162      0.235184     -0.292826
O       9.70752     15.44701     11.36135        -0.085606      0.010971     -0.302087
O       9.62078      7.64711      2.61435        -0.178926      1.088117      0.314807
O       9.73762      7.65347     15.76749        -0.875262      0.417770     -0.374551
O       9.67705      7.73027      7.03007        -0.645313     -0.707491      0.429460
O       9.56685      7.72102     11.47090         0.708736     -0.287998     -0.341224
O       9.58996     11.53253      2.73796         0.103390      0.386048     -0.626497
O       9.57471     11.56927     15.68113         0.237025     -0.284836      0.201547
O       9.54143     11.56791      7.04355         0.737573     -0.523754     -0.025405
O       9.65436     11.53187     11.49992         0.358254     -0.088832     -0.737715
