  # total energy = -7836.25539705 
CRSYTAL
PRIMVEC
    15.6080000000000005    0.0000000000000000    0.0000000000000000
     0.0000000000000000   15.6080000000000005    0.0000000000000000
     0.0000000000000000    0.0000000000000000   16.6239999999999988
PRESSURE
3.72683 4.80949 1.79813 -0.201671 0.210008 0.403098
PRIMCOORD
320 1
Pb       4.30251      4.07711      4.30062        -2.067761     -1.549984     -1.457462
Pb       4.15392      3.65696      0.02858        -1.798781      1.871949      0.053564
Pb       4.31654      0.09669      4.21845        -1.709605     -0.394361     -0.614015
Pb       3.95509      0.19815      0.47174        -0.913363     -1.172965     -0.112057
Pb       0.45966      3.94736      4.21292        -1.201479      0.959327      0.870829
Pb       0.07435      3.89548      0.27395        -0.029599      0.033365     -0.825601
Pb      15.42215      0.07707      4.18860        -0.504231     -1.156275      0.270363
Pb       0.05499      0.09432      0.07453         0.336288     -1.173598     -0.101904
Pb       4.03475      3.70518      8.19095        -1.032022     -0.112150      0.750642
Pb       3.96198     15.60666      8.86427        -1.251783      0.769150     -1.601715
Pb      15.51900      3.72547      8.28549        -0.061029      0.512590     -0.686903
Pb      15.14597     15.47856      8.03467         0.738491      0.002649      0.440175
Pb       3.63776      3.83609     12.26383         1.659956      0.296688     -0.521164
Pb       3.79074      0.47032     12.40182        -1.418679     -1.212001     -0.117163
Pb       0.28113      3.89676     12.48843        -0.210397     -0.874555      0.043423
Pb      15.16012     15.30915     11.88446         1.462073      0.479989      0.780764
Pb       3.95733      8.29580      4.18022        -1.746854     -1.771285     -0.018758
Pb       3.99706      7.99169      0.06392        -0.025414     -0.622451     -0.574158
Pb       0.21914      7.63374      4.16200        -0.170236      0.185832      0.530759
Pb       0.15924      8.28007     16.50420        -1.053423     -2.820285      0.295774
Pb       4.21969      7.90858      8.85856        -0.942931     -0.243546     -0.833721
Pb       0.02431      7.80963      8.66519         0.491824     -0.475959     -1.267298
Pb       3.78268      7.43170     12.88319         0.281998      1.208739     -1.249298
Pb       0.00085      7.51730     12.58673         0.824073      0.844670     -0.106441
Pb       3.62341     12.11325      4.79856         0.540516     -1.088918     -1.580325
Pb       3.34151     11.95038      0.42331         2.584441     -0.784130     -0.788168
Pb       0.26085     11.62049      4.18023        -2.245038      0.063819      1.897680
Pb      15.37340     11.65355     16.32236         1.371800      1.695488      0.965278
Pb       3.70998     11.50409      8.42399        -0.389904      0.176100     -0.248329
Pb      15.38423     11.57956      8.20882         0.448664      0.074025     -0.256780
Pb       4.49165     11.86213     12.55867        -3.488323      0.014609      0.255031
Pb      15.16824     11.83662     12.49757         1.652388     -0.029823     -1.015805
Pb       8.19031      3.97887      3.56743        -3.394338      0.446641      3.005896
Pb       7.80573      3.98518     16.41941         0.223062     -0.176357      0.070723
Pb       8.48170     15.58947      4.13794        -3.315402     -0.988294     -0.680902
Pb       7.60087     15.23602     16.56482         0.148584      1.589736      0.382409
Pb       7.46437      4.04950      7.94445        -0.020809      0.635248      0.765838
Pb       7.65210      0.04953      8.41382         0.786137     -0.840549     -0.938193
Pb       7.93589      3.90903     12.44349        -0.350104      0.527168     -0.359177
Pb       8.23312      0.31561     12.84250        -1.021522     -1.087273     -1.509766
Pb       7.48708      7.88523      4.05940         1.369202     -0.689062      0.720660
Pb       7.59406      7.92037      0.29105        -0.920528     -0.654273     -1.540168
Pb       7.69263      8.10776      8.30514         0.137107     -1.776699     -0.212397
Pb       7.65647      8.05906     12.58643         0.634401     -1.339778      0.106812
Pb       7.65499     11.86202      4.03516         0.030942     -0.260167     -0.152183
Pb       8.03051     12.15174     16.61565        -2.063548     -1.881871      0.448065
Pb       7.58910     11.37359      7.96946         0.652112      1.487797      1.147031
Pb       7.96688     11.40645     12.83189         0.401160      0.783903     -0.841089
Pb      11.25294      3.70000      3.88712         3.000030      0.545540      1.310208
Pb      11.88667      3.70163     16.54239        -0.759336      0.880164     -0.433241
Pb      11.70268     15.26305      4.37731         1.003351      1.063587     -0.381567
Pb      12.19804     15.59082      0.38156        -0.868580      0.868840     -0.461838
Pb      11.54924      4.08668      8.65512         0.483600      0.318576     -0.681278
Pb      11.59444      0.38117      8.12543         0.253237     -2.135663      0.382943
Pb      11.52902      3.32973     12.45776         0.309439      1.888204      0.278608
Pb      11.46248     15.13729     12.26195         1.181824      2.344227     -0.747588
Pb      11.06987      7.50304      4.22881         1.404973      0.498364      0.514316
Pb      12.03999      7.92481      0.01930        -0.143528     -0.685357     -0.858377
Pb      12.03102      7.52028      8.96767        -0.713407     -0.242435     -1.950444
Pb      11.53706      7.65585     12.73866         0.192136      0.296137      0.251865
Pb      11.30429     11.43017      3.89581         0.588162     -0.380868      0.932033
Pb      11.94772     11.39888     16.19389        -1.233814      0.539231      1.457843
Pb      11.13181     11.68059      8.28495         0.694300     -0.855494     -0.856905
Pb      11.70899     11.54652     12.34284        -0.264049     -0.643486     -0.531199
Ti       1.82938      1.90681      2.44313         2.618072     -0.986137     -0.715281
Ti       1.94081      1.86436     14.78883         0.034514      2.526378     -1.102473
Ti       1.85597     13.65687      2.54802         0.157923      1.303775     -1.787581
Ti       1.75507     13.68611     14.52456         0.327878      0.943620     -2.733485
Ti      13.65669      1.99446      2.21109        -0.955136     -1.072958      0.676403
Ti      13.73362      1.85275     14.36811        -0.220940      1.010242      1.961535
Ti      13.54206     13.32360      2.08995         2.749615      4.554644      0.259844
Ti      13.42517     13.71178     14.67225         2.693352      1.277584     -0.193586
Ti       1.94076      1.91567      6.12465         1.173789      0.411817      1.687779
Ti       1.74154     13.78929      6.56021         0.998915      0.335326      0.399807
Ti      13.52209      2.09901      6.13325         0.948134     -0.156035      0.036933
Ti      13.43470     13.37559      6.12446        -0.481579      0.025178      2.830939
Ti       1.74082      1.82347     10.26752         0.392846     -0.435166      0.133734
Ti       2.02168     13.50870     10.38260        -1.906713      1.004327      0.641973
Ti      13.44660      1.84256     10.38700         0.394529     -0.545453      1.326120
Ti      13.35901     13.40064     10.06137         1.799661      0.577924      0.512275
Ti       2.10154      5.89056      2.26583        -0.460249      0.382619     -0.278199
Ti       2.01083      5.69674     14.87279         0.562047      1.432308      0.411105
Ti      13.75473      5.96529      2.17527         0.979643     -0.596237      0.247284
Ti      13.85256      5.70633     14.70340        -2.277086      0.824893      0.164257
Ti       2.01200      5.84718      6.47438        -0.198351     -0.572692     -1.403559
Ti      13.75291      5.72316      6.13271        -0.737636      1.144190      2.221872
Ti       1.95510      5.84721     10.53298         1.054733     -0.146987      1.453591
Ti      13.74306      5.53347     10.82904        -1.205425      3.430134     -1.262187
Ti       1.86179      9.75016      1.98155         2.014848      0.811150      3.659275
Ti       1.94430      9.74021     14.52057         1.621861      3.285013     -1.721451
Ti      13.80816      9.65798      2.39138         0.606086     -0.667748      0.217201
Ti      13.80179      9.70181     14.35367        -1.313183     -1.085078     -1.189439
Ti       1.83494      9.62899      6.26519        -0.198146     -0.248116      1.927246
Ti      13.60119      9.52997      6.26137        -0.633563     -0.093886     -0.240706
Ti       1.91967      9.65340     10.60388         1.114040      0.653514      2.226952
Ti      13.75696      9.47050     10.51253        -0.203546      2.015540      0.552847
Ti       5.93613      2.02078      2.09354        -0.795089     -1.470049      1.266142
Ti       5.82890      2.01774     14.36767        -0.873868     -0.377394      2.051405
Ti       5.89862     13.66616      2.23365        -1.196033     -0.177330     -0.494648
Ti       5.51972     14.01894     14.30383        -0.410543     -0.930820      3.294584
Ti       5.86815      1.82683      6.21328        -1.630531     -0.546007      1.234940
Ti       5.71395     13.69607      6.29147         0.491978      0.071703     -0.137622
Ti       6.12665      1.92344     10.53028        -2.221284      2.482470     -0.993514
Ti       5.89815     13.87124     10.21734        -0.051052     -3.617969      1.822803
Ti       5.82350      5.99450      2.10709        -0.499518     -1.006096     -0.620349
Ti       5.83797      5.73102     14.54998         0.232629      1.613223      1.642328
Ti       5.69588      5.88337      6.01364         3.479798      1.999393      0.247671
Ti       5.85901      5.92440     10.53963        -1.260533     -1.502039      1.248275
Ti       5.79914      9.84415      2.22330        -0.274916      2.769595     -1.349116
Ti       5.72418      9.89082     14.63900        -0.679314     -0.757483      1.151168
Ti       5.72776      9.74204      6.14592        -0.900681     -1.422735      1.236297
Ti       5.84050      9.91218     10.65482        -1.277779     -1.147493     -1.023322
Ti       9.76326      1.91713      1.87420         0.958829     -2.134365     -1.240175
Ti       9.86447      1.87431     14.69346         0.931525      0.626895      0.906185
Ti       9.99744     13.65720      1.84349        -3.412986      0.507364      1.272899
Ti       9.76188     13.56670     14.37192         1.440235      0.569098      2.877186
Ti       9.63200      1.88089      6.22151         0.361063      0.674037      0.763626
Ti       9.50955     13.50142      6.17630         0.675742     -0.835558      0.984576
Ti       9.62221      1.94313     10.12971         2.509385     -0.976762      1.484004
Ti       9.51778     13.42476     10.43437        -0.671507      2.304345     -1.979777
Ti       9.85173      6.03398      1.82642        -0.517656     -0.965765     -1.242892
Ti       9.77529      5.83018     14.47109         0.716748      0.274292      2.751252
Ti       9.75474      5.65368      6.44721        -0.018183      1.585541     -0.577341
Ti       9.67300      5.83893     10.64383        -0.879161     -0.505855     -0.713690
Ti       9.60272      9.78545      1.79512         0.369936     -4.701687      2.134669
Ti       9.60811      9.63060     14.95744         0.789980     -1.146450     -5.325363
Ti       9.67539      9.49935      6.12129         1.753691     -0.295796      1.784898
Ti       9.73408      9.57470     10.49401         0.096793      1.231586     -0.366263
O       2.04758      1.98379      0.58086        -0.321094      0.129629     -0.829654
O       2.14943      2.18817     12.96834        -1.784631     -0.854306     -0.679646
O       2.09748     13.60817      0.60547        -1.839426      1.464640      0.138670
O       1.82977     13.70653     12.58425        -0.793596      0.100316      1.784601
O      13.95492      1.62088      0.37495        -0.827031      0.935361      0.964316
O      13.54455      1.95726     12.62553         0.077450     -0.241958     -0.762778
O      13.62191     13.72405      0.19796        -0.243028     -0.969085      1.350506
O      13.49232     13.66681     12.85827         0.233188     -0.341644     -0.880865
O       2.11976      2.09192      4.32798        -0.539977     -0.430759      0.491790
O       1.93435     13.63959      4.44928        -0.056215     -0.063434      2.237237
O      13.62318      1.90834      4.40523        -0.757526      0.285986     -1.634404
O      13.44287     13.73998      4.41591         0.247916     -1.351430     -1.073497
O       1.72113      1.91508      8.54280         0.144320     -0.098335     -1.050347
O       1.93944     13.53869      8.42989        -0.746441      0.464846     -0.066737
O      13.24255      2.13999      8.67554         0.899191      0.002808     -1.433534
O      13.38452     13.48411      8.32646        -0.074533      0.182639     -0.038073
O       2.03802      6.20076      0.50029        -0.177799     -0.791568     -1.325527
O       2.01490      6.02475     12.90904        -1.224464     -2.125487      1.477612
O      13.84260      6.09239      0.41504        -0.431512     -0.783958     -0.442130
O      13.77202      5.76620     12.86048         0.095808     -0.150961      0.632354
O       1.88688      5.84025      4.57490         0.431637      0.351225      0.937607
O      13.85277      5.98254      4.45637        -0.588588     -0.448924     -2.439766
O       2.02299      5.72492      8.85995        -0.395036      0.439471     -3.683016
O      13.56905      5.60679      8.88703        -0.386619      0.667781      0.626266
O       1.62712     10.04363      0.22398         0.675632     -0.194922     -0.141591
O       1.95571      9.74178     12.75558         0.534115      0.190110     -0.143331
O      14.04112      9.86341      0.31570        -1.536212     -0.770244      1.115523
O      13.65221      9.64715     12.45926        -0.243099      1.048493      3.411969
O       1.94782      9.56681      4.54857         0.257036      0.697230     -0.233994
O      13.57268      9.71123      4.34760        -0.607834     -0.438677     -0.367403
O       1.97533      9.60501      8.85979        -0.914997     -0.342408     -2.418604
O      13.81224      9.58491      8.70759        -0.130304     -0.681122     -0.745892
O       5.50150      1.98040      0.32016         1.817304     -0.855698     -0.000387
O       5.73398      1.93744     12.59446         0.741918     -0.082184     -0.373569
O       6.04517     13.49975      0.24272        -0.623711      0.860437      0.341514
O       5.80560     13.75834     12.61478        -0.158526      0.649195     -0.496044
O       5.85393      1.77890      4.49349         1.080897      0.818908     -0.755076
O       5.88544     13.82115      4.41214        -0.169440     -1.021438      0.042494
O       5.93056      1.81341      8.61329         0.358396     -0.053812      0.482041
O       5.88618     13.77893      8.42270         0.213098     -0.123310      0.336695
O       5.79545      5.91857      0.20485         0.452306     -0.258249      1.525575
O       5.71945      5.26942     12.88260         0.107232      1.656900     -0.883594
O       5.84114      5.89908      4.13669         0.210584      0.092637      1.208445
O       5.68850      5.87645      8.81677         0.299475     -0.288986     -1.764325
O       5.92199      9.55362      0.36154        -0.018560      0.993344     -0.575197
O       5.53470      9.78264     12.68570         1.578640     -0.239206      0.786006
O       5.84457      9.59365      4.29626         0.075678      1.253236      0.716320
O       5.75050      9.78706      8.53765         0.531777     -0.445973      0.573415
O       9.90824      1.86246      0.07483        -0.814928      0.060718      0.366335
O       9.66826      2.09047     12.64702        -0.255303     -1.294477      2.182791
O       9.82522     13.71289      0.09151         0.156810     -0.134671     -0.198861
O       9.96090     13.46588     12.61384        -1.480280     -0.877673     -0.938603
O       9.85525      1.73930      4.27522         0.054909      1.631660      0.986910
O       9.67983     13.39136      4.26593         0.251354      0.212806      0.719588
O       9.73196      1.87741      8.36051        -0.394322     -0.293938     -0.799780
O       9.56251     13.50493      8.58816        -0.086516      0.130088      0.044927
O       9.98690      5.65514      0.02279        -1.472835      1.128562      2.825285
O       9.50220      6.02687     12.73887         0.547655     -1.895107     -0.971450
O       9.82522      5.60221      4.53013        -0.406532     -0.659817     -0.413859
O       9.78146      5.85757      8.83798        -0.391246      0.395881     -0.862955
O       9.75135      9.30594     16.61880        -0.085364     -0.082587      4.121049
O       9.55981      9.79908     12.62581         0.316648      0.277999     -0.062359
O       9.68826      9.77668      4.29398         0.339813     -0.369839      1.081771
O       9.51918      9.61484      8.41682         0.202286      0.185033      2.629767
O       4.12431      1.94904      2.70914        -0.343833      0.716011     -1.544633
O       3.89359      1.96891     14.71503         1.512749      0.072849      0.790802
O       4.00848     13.53852      2.51849        -0.319043      0.267036     -0.475112
O       3.72023     14.00391     14.80318         1.743803     -0.842477     -0.766347
O      15.55858      1.83988      2.63575         0.807783      0.548747     -1.036449
O      15.55231      2.20794     14.85618         1.107808     -0.494907     -0.012671
O      15.58972     13.88611      2.65520        -0.087521     -1.327253     -0.917899
O      15.37039     13.66446     15.05490         1.681849      0.619202     -1.335344
O       3.85942      1.77828      6.47987         1.185941     -0.273821      0.280962
O       3.79734     13.50982      6.69125         0.133097      0.181105     -1.180605
O       0.05368      2.16832      6.12140        -0.796122     -0.016472      1.386303
O      15.48582     13.60553      6.60784        -0.561084     -0.343912     -0.372003
O       3.70340      1.87172     10.48752         0.441209     -0.219944      0.672947
O       3.80253     13.57564     10.27889         1.935644      0.249415      0.446765
O      15.39265      1.72134     10.47100        -0.365286      0.157893      0.480956
O      15.37329     13.83456     10.22359        -1.132997     -0.618451      0.392912
O       3.91886      5.78603      2.49215         2.234029      0.561408     -0.532201
O       3.89662      5.98743     14.96551        -0.130458     -0.131794     -0.462308
O       0.12255      5.91462      2.45261        -0.879289     -1.000809     -0.053314
O       0.08737      5.89886     14.99508         0.157420     -0.256210     -0.159417
O       4.01435      6.09212      6.43989        -2.879318     -0.293915      0.396761
O       0.01525      5.32059      6.51311         0.856288      0.987269      0.523625
O       3.83468      5.89954     10.86847        -0.084929     -0.374974      0.306726
O      15.56946      5.89664     10.82743         0.367271     -0.240921      0.226129
O       3.86322      9.98933      2.28755         0.065496     -0.621613     -0.155589
O       3.77612      9.88482     15.08423         2.895292      0.111886     -0.507769
O       0.22426      9.68400      2.79594        -3.079636      0.329575     -1.498346
O       0.05588      9.93604     14.57379        -1.740007      0.072553      0.604885
O       3.73386      9.65240      6.44082         2.374905     -0.418918     -0.035777
O      15.47194      9.81804      6.33179        -0.038158     -0.414096      0.835159
O       3.86102      9.59179     10.56164         1.122923      0.845323      0.361918
O       0.03661      9.64568     10.80000        -1.808839     -0.639448     -0.376194
O       7.97234      1.67468      2.03399        -0.903630      0.507836      0.707828
O       7.76399      1.66093     14.85634         0.921196      1.766010     -0.692734
O       7.88259     13.69217      2.15246         0.804759     -0.616162      0.234843
O       7.98553     13.54167     14.84289        -0.598283      0.727523     -1.212706
O       7.73488      2.03036      6.35262         0.378773     -0.729879      0.294447
O       7.62916     13.65305      6.34205         1.806828     -0.692067      0.400593
O       7.94780      1.78364     10.73991        -4.078220      0.130838      0.325476
O       7.64052     13.80868     10.66343         0.905978     -0.245617     -0.273805
O       7.77015      5.85347      2.30841         0.789547     -0.194439     -0.852356
O       7.86035      5.59042     14.83238        -0.210073      0.203290     -0.277131
O       7.67512      5.91695      6.35916        -0.040787     -1.881045      1.109061
O       7.62965      5.92067     10.93923         2.133538     -0.681257      0.061785
O       7.78187      9.82853      2.64095        -0.885419     -0.491276     -1.748293
O       7.78866      9.61595     14.98701        -1.660634      0.712328     -1.104576
O       7.82534      9.59416      6.55713        -2.149100      0.433030     -1.291703
O       7.69680      9.50950     10.69115        -0.539595      0.860880     -0.149568
O      11.69914      1.68843      2.11038         0.517387      1.154069      0.423314
O      11.74743      1.81416     14.95183         0.637753      0.862151     -0.849010
O      11.71983     13.23757      2.18678         0.039736      0.104100      0.368033
O      11.66849     13.34724     14.76347        -0.684707      0.483960      0.308747
O      11.71483      1.84383      6.36939        -2.352446      1.045895     -0.306963
O      11.45378     13.49518      6.34536         0.633114     -0.054779     -0.175330
O      11.45690      2.05491     10.58997         1.704941      0.078231     -0.088412
O      11.61273     13.54819     10.59605        -1.430612     -1.377294      0.153351
O      11.65236      5.86164      2.42503         0.037835      0.738710     -0.488656
O      11.78064      5.89523     15.04696         1.024500      0.412579     -1.410586
O      11.63437      5.93853      6.46194         0.118557     -1.124378      0.414261
O      11.46258      5.53889     10.88388         1.672621      0.585539      0.124692
O      11.38832      9.34380      2.08403         1.982095      1.107172      0.581832
O      11.70008      9.57068     14.88500         1.845102      0.126692     -0.584320
O      11.54375      9.66148      6.68713         0.570101     -0.055823     -1.303556
O      11.61220      9.89409     10.58384        -0.713256     -0.605197     -0.143864
O       2.16732      4.03958      2.61009        -1.166183     -1.394717     -1.081446
O       2.07416      3.94186     15.09240        -0.569842      0.307489      0.187135
O       2.08893     15.59578      2.48801        -0.328787      1.581816      0.089933
O       1.96899      0.16714     14.85895        -1.295874     -2.401533      0.569684
O      13.49198      3.80339      2.12427         0.774152      0.680778      0.208182
O      13.70038      3.94811     15.11982         0.266435     -0.640144     -0.411009
O      13.54251     15.40795      2.50512        -0.617943      0.404886     -0.778077
O      13.71887      0.14149     14.75008        -0.215067     -2.696577      0.237279
O       2.35755      3.81000      6.48138        -0.995665      0.968952      0.290924
O       1.64193      0.03998      6.44733         0.296512     -1.199189      0.197913
O      13.53501      3.92246      6.54349        -0.568090     -1.157788     -0.028873
O      13.46467     15.60532      6.44191         0.515486     -0.041638      0.091615
O       1.84790      3.78514     10.58998        -0.855672      0.371179      1.450812
O       1.91099     15.51123     10.65854        -0.012667      1.070947     -0.220516
O      13.79580      3.87042     10.90421        -0.269378     -3.952668     -0.101430
O      13.06547     15.57900     10.45632         1.924570      0.063454      0.011562
O       2.15601      8.03249      2.64856        -0.464514     -1.627688     -1.815212
O       1.99951      8.05206     14.85960        -0.357473     -3.409336      0.712226
O      14.11861      7.82671      2.28016        -1.748211      1.029269      0.262909
O      13.80525      7.94700     14.72640         0.201432     -0.792306      0.479209
O       1.67140      7.61635      6.75014        -0.299348      0.883409      0.064218
O      13.84260      7.67669      6.57483        -0.224210      0.541054      0.396171
O       1.88976      7.68837     11.02374        -0.278303      0.964818     -1.209854
O      13.37260      7.65866     10.90133         0.582594      0.229700     -0.960797
O       1.76245     11.69816      2.70885         1.933716     -0.455415     -2.522750
O       1.88272     11.96791     14.74601         0.027648     -1.538194      0.755517
O      13.83774     11.65485      2.46508         0.230319     -2.248235     -0.121278
O      13.65657     11.66965     14.73282        -0.101768     -0.430448     -0.655613
O       1.88085     11.48109      6.64855        -0.100883      1.115257     -0.355256
O      13.56310     11.59342      6.56916        -0.187520     -0.190643     -0.637515
O       1.80150     11.76169     10.59590        -0.089362     -1.609766      0.033646
O      13.62133     11.58437     10.63070         0.108092      0.888340      0.014476
O       6.21503      3.81928      2.36626        -1.172826      0.758421     -0.529329
O       5.78151      3.83126     14.92960         0.788973     -0.641249      0.672608
O       5.75311      0.06032      2.29942         0.647131     -1.146284     -0.573396
O       5.90905      0.14023     14.79726        -0.501553     -1.488220     -0.310235
O       5.50712      3.97531      6.47320         1.704719     -1.110917     -0.228752
O       5.82941     15.46312      6.44824        -0.011401      2.716913      0.454001
O       5.67952      3.75831     10.67657         1.224338     -1.053677     -0.292015
O       5.65540     15.59181     10.62358        -0.008369      1.691051     -0.114011
O       5.77556      7.92505      2.20334         0.329443     -1.949130      0.726122
O       5.96298      7.72226     14.70478        -0.553763      0.389524     -0.130351
O       5.97029      7.77042      6.27942        -0.701621      1.344423      0.264779
O       5.75806      7.74623     10.72016        -0.106686      1.361253      0.273154
O       5.90665     11.79170      2.47313         0.496151     -1.144042     -0.228443
O       6.07407     11.69266     14.49749        -0.963325     -0.316757      0.444833
O       5.66924     11.57712      6.30164         1.017177      0.378217      0.344319
O       5.72039     11.76655     10.71569         0.999740     -0.560320     -0.877880
O       9.82237      3.81137      2.17112         0.453492      0.506561     -1.564578
O      10.02432      3.80596     14.67718        -1.055149     -0.334688      0.040386
O       9.87640     15.41749      2.40088         1.074403      0.039493     -1.296453
O      10.01528     15.48755     14.48325        -1.150448     -0.375599     -0.295534
O       9.41387      3.78643      6.85170         2.129335      0.438042     -1.684031
O       9.74193     15.58417      6.49061        -0.888406      0.134807     -0.774224
O       9.58890      3.75257     10.60496        -0.889554      1.881596      0.196713
O       9.65076     15.60140     10.59065         0.646712     -0.449051      0.337794
O       9.33987      7.76107      2.30905         1.464332     -0.948252     -0.521398
O       9.81977      7.75146     14.47865        -0.369458     -0.287451      0.650816
O       9.61595      7.54624      6.36347        -0.094064      2.347660     -0.453331
O       9.78103      7.82487     11.04248         0.243663     -0.752414     -1.594637
O       9.66015     11.43418      2.01161         0.813325      5.520910      0.364748
O       9.93069     11.43643     14.81871        -0.954702      2.425839     -0.351677
O       9.47953     11.58471      6.48598         0.473812      0.805618     -0.380712
O       9.37983     11.66434     10.53903         0.631540     -1.504471      0.521136
