  # total energy = -7843.65453063 
CRSYTAL
PRIMVEC
    15.6080000000000005    0.0000000000000000    0.0000000000000000
     0.0000000000000000   15.6080000000000005    0.0000000000000000
     0.0000000000000000    0.0000000000000000   16.6239999999999988
PRESSURE
2.82911 2.88885 -0.27905 0.030683 0.134618 -0.140713
PRIMCOORD
320 1
Pb       3.47423      3.80872      4.07556        -0.047281      0.349375      0.662446
Pb       3.73355      3.92837      0.21034        -0.249878      0.116342     -1.472112
Pb       3.58366     15.57344      4.08540         1.226538     -0.651400      0.647650
Pb       3.97518     15.55769     16.29885        -0.421876     -1.046092      0.716364
Pb      15.35475      3.93748      4.10842         0.183136      0.419801     -0.346623
Pb       0.12451      3.75528     16.34361        -0.412227      1.093887      0.476752
Pb       0.23281     15.40061      4.19938        -0.816029     -0.035165      0.028152
Pb      15.54389     15.43291      0.07712         0.433322      0.103306     -0.000360
Pb       3.92159      4.02480      8.35731        -0.141783     -0.978796     -0.916669
Pb       3.96341     15.54131      7.90174        -0.347925     -0.791459      1.539044
Pb       0.10024      3.90152      8.52307        -0.161972     -0.260984     -0.439215
Pb       0.34783      0.25789      8.75177        -1.508514     -0.952565     -1.217694
Pb       4.14539      3.83996     12.57168        -0.474820     -0.250677     -0.060843
Pb       3.86537     15.40551     12.49750         0.319867     -0.217723      0.061700
Pb      15.44548      3.90573     12.33169         1.224836      0.095980      1.239842
Pb       0.02922      0.21125     12.75637         0.005540     -0.962397     -0.341542
Pb       3.83817      7.46499      4.30950        -0.287848      1.266873     -0.394331
Pb       3.85207      7.80256      0.05065        -0.627262      1.069064     -0.094495
Pb      15.38230      7.90050      4.45053         1.151217     -1.273844     -0.837119
Pb      15.33899      7.85071      0.23344         1.572041     -0.709811     -0.892293
Pb       3.66096      7.72690      8.00067         1.684711      2.132410      1.580765
Pb      15.53461      7.63670      8.39563        -1.034659      0.805525      0.380722
Pb       4.12985      7.96601     12.15422        -1.130468     -0.381447      2.082096
Pb      15.51068      7.85003     12.63491        -0.107962     -0.780954     -0.437871
Pb       4.20286     11.42227      3.76659         0.016354      0.291650      2.173003
Pb       4.23650     11.46184     16.32853        -2.058965      0.028844      0.594421
Pb      15.34170     11.87256      4.20309         0.712752     -0.674428      0.613213
Pb      15.60221     11.59033      0.23092        -0.428224      0.549173     -0.562285
Pb       4.19075     11.64118      8.37270        -1.063091     -0.906909     -0.772864
Pb       0.06110     11.56850      8.80375         0.360443      0.262870     -0.756710
Pb       3.65453     11.56887     12.22773        -0.059810      1.111570      0.883729
Pb       0.04051     11.64556     12.51086        -0.279278      0.573190      0.003919
Pb       7.69070      3.86085      4.43804        -0.860695     -0.130971     -0.285059
Pb       7.87597      3.86161      0.27577        -0.586790      0.682192     -1.242126
Pb       7.30493      0.06530      4.15774         1.219411     -0.943378     -0.049348
Pb       7.91787      0.18929      0.26685        -0.749799     -1.323361     -0.605123
Pb       8.13068      3.84922      8.71795        -0.544340     -0.631656     -0.363834
Pb       7.79575      0.11793      8.34387        -0.328214     -0.405486     -0.046080
Pb       7.74639      3.58544     12.70799        -0.303194      0.380564     -0.480808
Pb       7.71088     15.54067     12.30656        -0.816526     -0.353537      0.177407
Pb       8.04154      7.74439      4.11119        -1.505067      1.215723     -0.116250
Pb       7.97981      7.69884     16.44280        -1.132203     -0.752068      0.298255
Pb       7.81950      7.55806      8.12052        -0.359728      1.456155      0.679528
Pb       7.78905      7.58228     12.29776         0.231858      0.632491      1.156873
Pb       7.85410     11.69487      4.33870        -0.538939      0.127382     -0.463986
Pb       7.66343     11.48299      0.02152         0.978770      0.912207      0.486213
Pb       7.84747     11.84619      8.62761         0.797812     -0.168642     -1.243385
Pb       7.35353     11.68455     12.37545         0.962174      1.055320      0.365193
Pb      11.72951      4.01692      4.17556         0.500341     -0.594086     -0.601930
Pb      11.56159      3.79529      0.18869         0.926763      0.046631     -0.240328
Pb      11.38288      0.24937      3.80701         1.215137     -0.519907      1.554751
Pb      11.31661     15.48723     16.41748         3.763593      1.648390      1.681905
Pb      11.58006      3.59678      8.18906         0.387563      0.344610      0.772998
Pb      11.53590     15.44459      8.51013         0.883937      0.239101     -0.251645
Pb      11.74619      4.21129     12.48798         0.084318     -0.752492      0.068235
Pb      11.84198      0.22339     12.64307         0.289544     -0.997572      0.233832
Pb      11.92535      8.07650      3.86686        -1.433252     -0.890139      1.826425
Pb      11.19946      7.87477     16.56762         2.386631     -0.561139     -0.820026
Pb      11.29068      7.82100      7.98625         1.360799      0.499532      1.086972
Pb      11.76990      7.95126     12.28976         0.810694     -0.014064      0.547442
Pb      11.62243     12.10620      4.31410         0.323988     -0.883584      0.072941
Pb      11.48955     11.86890      0.29793         0.920825      0.105184     -1.052560
Pb      12.10137     11.64657      8.43931        -1.444482      0.249480     -0.082384
Pb      11.86540     11.94713     12.64650         0.546988     -0.493803     -0.089104
Ti       1.96950      1.84399      1.97669        -1.800680      0.966933      1.711657
Ti       1.98951      1.86115     14.61308        -1.316495      0.901999     -1.360244
Ti       2.04946     13.35762      2.34355        -0.281617      0.000954     -2.350424
Ti       2.02788     13.49528     14.68163         0.524659     -0.039381     -1.616153
Ti      13.86241      1.75902      2.10663        -2.132957      3.045629     -1.568154
Ti      13.63116      1.91010     14.74702        -0.347185      0.403336      0.942069
Ti      13.61224     13.79029      2.37499        -0.249238     -1.881778     -1.680414
Ti      13.86986     13.62837     14.87212        -1.519865     -0.788926     -1.284840
Ti       1.70376      1.83765      6.31194         1.107623      0.190147      4.683727
Ti       1.98232     13.38004      6.29941         0.684500     -1.318993     -0.245434
Ti      13.64018      1.72569      6.35601        -0.561629      1.676377      1.812768
Ti      13.72388     13.64892      6.49694         1.222759      0.140261      0.000124
Ti       2.19781      1.90402     10.51546        -0.260619      0.244057     -0.023973
Ti       2.00368     13.64468     10.24916         0.003787     -0.706893     -0.007681
Ti      13.65199      1.88748     10.48504        -0.075723     -1.463476     -0.789904
Ti      13.74545     13.71603     10.41400         0.585542     -0.485234     -0.669940
Ti       1.80716      5.89338      2.11184        -1.343317      0.564457      1.195743
Ti       1.97681      5.99608     14.54306        -0.373512     -2.266341     -2.072282
Ti      13.61730      5.84558      2.08694         0.776354     -1.475953     -0.177491
Ti      13.62687      5.79072     14.78637         0.615577     -0.152851     -0.333149
Ti       1.77708      5.80714      6.58838        -0.903689     -1.074666     -1.885088
Ti      13.43889      5.66903      6.43595         2.151186      1.048924      0.042111
Ti       2.28199      5.79456     10.55502        -1.826144     -0.174731      2.669631
Ti      13.71450      5.67610     10.42291        -1.525458      1.318913     -2.400312
Ti       2.02735      9.69145      2.27521        -0.021245     -2.812887     -0.519643
Ti       1.98560      9.70671     14.70280         0.639379     -0.352480      1.276426
Ti      13.73379      9.70049      2.01933        -0.414420      2.190632     -1.394480
Ti      13.70555      9.52127     14.64774        -0.970982      1.560789     -0.579864
Ti       1.87482      9.65193      6.31918         2.547958      2.232694     -2.649682
Ti      13.65402      9.66114      6.29706        -1.019471      0.695853      3.546086
Ti       1.94453      9.54312     10.50122        -0.433290      1.442356     -0.761501
Ti      13.60388      9.65290     10.39098        -0.207377     -1.105612      1.543985
Ti       5.76752      1.99919      2.09240         0.097359     -0.954530     -0.131970
Ti       5.84205      1.91581     14.73982        -0.516979     -0.066546     -1.270831
Ti       5.68683     13.69466      1.93591         4.495217     -0.586508     -0.721011
Ti       6.09629     13.65173     14.62545        -1.700232      0.143936      0.359204
Ti       5.80394      1.97919      6.30096        -0.123790      0.362561      0.410968
Ti       5.94498     13.68557      6.25807        -0.608879      0.083804     -1.279165
Ti       5.84290      1.83888     10.46714         0.656697      0.058532      0.748270
Ti       5.78983     13.60149     10.25539         0.030761      1.887599      3.193607
Ti       5.66271      5.76386      2.10602         0.664430      0.544842      0.685925
Ti       5.72146      5.93185     14.45286         1.593969     -0.571626      2.040072
Ti       5.80941      5.92430      6.31840        -1.172306     -0.675024     -1.204061
Ti       5.90417      5.91458     10.31444        -0.670672     -1.343207      1.354472
Ti       5.89939      9.59823      1.97179         0.370266      1.228750      0.806066
Ti       6.19441      9.58728     14.59934        -3.428476     -0.386028     -0.122725
Ti       5.89705      9.89110      6.35925        -0.838147     -0.532009     -0.565373
Ti       5.98332      9.72127     10.49955        -1.506913      0.231487     -3.374229
Ti       9.69859      1.97028      2.08754         0.382301     -0.034827      0.129319
Ti       9.64566      1.91954     14.72060         0.397360     -0.199373      1.282777
Ti       9.57106     13.58636      2.28996        -0.562788      3.131876     -0.921606
Ti       9.85751     13.61073     14.62651        -0.746223     -1.119777      0.540954
Ti       9.65417      1.87533      6.11303         0.594220      0.755544     -1.455301
Ti       9.82073     13.77335      6.44066        -1.496398     -1.021126      0.618395
Ti       9.82238      1.81245     10.71134        -0.513103      1.486211      1.032980
Ti       9.85566     13.62087     10.55555        -0.546349     -0.018221     -0.666096
Ti       9.63695      5.84450      2.20723         1.905072     -0.769844     -2.128812
Ti       9.72867      5.78544     14.49143        -0.661460      0.472267      2.048256
Ti       9.64929      5.81980      6.22018        -0.095273     -1.186151      0.148447
Ti       9.74752      5.90905     10.61527         1.099643     -0.943646     -1.724784
Ti       9.79932      9.67431      2.08264        -1.038580      2.410052      2.489921
Ti       9.94904      9.80026     14.38881         0.250215      1.595242      2.163054
Ti       9.74663      9.93440      6.17079         0.105126     -0.128890     -0.128791
Ti       9.72369      9.84882     10.51334         1.693751     -0.383790     -1.599661
O       1.92159      1.76377      0.27176         0.066446      0.840140     -1.807220
O       1.92603      1.63835     12.71789         0.357961      0.731267     -0.346360
O       2.18600     13.26664      0.49911        -0.447076      0.600948      1.208570
O       1.80168     13.42323     12.80144         0.390235      1.008653      1.019573
O      13.68698      2.03610      0.26564         0.718376     -0.801237      1.471577
O      13.74589      1.55302     12.93465        -0.579771      0.979185     -1.029779
O      13.84641     13.75820      0.51802        -0.412330     -0.249517      0.712757
O      13.70348     13.92416     13.02394         0.129167     -0.702010      1.532403
O       1.82186      1.91595      4.63556         0.193980      0.020368     -2.530106
O       2.01682     13.67479      4.41092        -0.581510      1.110244     -0.673994
O      13.52731      2.13455      4.70331         0.170976     -0.407279     -2.956754
O      13.65869     13.57152      4.55902         0.239162     -0.222326     -0.321903
O       2.22060      2.12757      8.65090        -0.344398     -0.075969      1.071525
O       2.09831     13.46387      8.45418        -0.220614     -0.538551     -0.209248
O      13.29559      1.90801      8.70425         0.418879     -0.206424     -0.402981
O      13.76182     13.69448      8.44380        -0.956679     -0.332899      2.091370
O       1.87941      5.88253      0.41633         0.330371     -0.331824     -2.425891
O       2.01147      5.94506     12.57916        -0.443085     -0.088404      1.543525
O      13.78954      5.89668      0.23568        -0.613861      0.074372      0.797495
O      13.92868      5.79630     12.95901        -1.016763     -0.156707     -0.423373
O       1.71591      5.63452      4.78526         0.520509      0.801741     -0.774256
O      13.62622      5.96210      4.29159        -0.041963     -0.531182      1.979022
O       1.97503      5.78991      8.75454         0.065501     -0.561683     -1.477178
O      13.57508      5.57228      8.55342        -0.066005     -0.217593      0.695043
O       2.04223      9.39385      0.06142        -0.654451      1.239503     -0.727983
O       1.78119     10.13492     12.68200         0.838736     -2.444983      0.246458
O      13.66673      9.56759      0.12981         0.134296      0.619987      2.640709
O      13.68025      9.45103     12.64916        -0.249086      0.270407      1.983744
O       2.07170      9.44448      4.40071        -0.440968     -0.321621      0.200382
O      13.74786      9.79468      4.57832         0.344794     -0.651497     -2.366895
O       1.82072      9.90533      8.71231         0.011235     -0.594680      0.305644
O      13.63476      9.70351      8.55985        -0.192131      0.904420      0.500675
O       5.62062      1.94919      0.30856        -0.221970      0.311718     -0.306994
O       5.85823      1.74788     12.85882         0.698549      0.113425      0.614035
O       5.58294     13.55290      0.11139         0.551253      0.102433      0.876472
O       5.67934     13.37997     12.78507         1.808688      0.467177      0.628599
O       5.99028      2.00128      4.42537        -0.444050     -0.221530      0.295429
O       5.98544     13.72125      4.43514         0.854072      0.308412     -0.464579
O       5.85705      1.80952      8.73778        -0.482820      0.406737     -2.119552
O       5.64308     13.63699      8.57475         0.576469      0.036694     -2.560368
O       6.10883      5.85478      0.39034        -1.240831     -0.295549      0.766817
O       5.89016      6.10803     12.70831         0.539426     -0.197168     -0.771555
O       5.70430      5.77365      4.44065         0.125771      0.291876      0.106817
O       6.03321      5.70942      8.59620        -0.506437     -0.051387     -0.887479
O       6.08211      9.48325      0.17920        -0.054343      0.719376     -0.749226
O       6.05594      9.79565     12.56735        -0.403790     -0.682459      1.189025
O       5.72474      9.63638      4.56364         0.362283      0.854202      0.741843
O       5.78038      9.82805      8.57711         1.103486      0.149955      0.482609
O       9.81599      1.78254      0.05719        -0.883490      1.543977      2.871728
O       9.74833      2.28657     13.01818        -0.292757     -1.033388     -2.753256
O      10.01660     13.94243      0.52467        -2.147484     -2.530955      0.207689
O       9.95611     13.59850     12.88707        -0.656641     -0.084042     -0.841840
O       9.65553      2.27484      4.21807        -0.190583     -0.203292      0.944357
O       9.64465     13.64281      4.69589         0.537794     -0.905444     -2.474485
O       9.88315      1.67605      8.99761         0.573592      0.417673     -2.470413
O       9.63104     13.80841      8.65722         1.709273      0.286747      0.635254
O       9.78679      5.91067      0.22442        -0.242595      0.316807      0.887860
O       9.55861      5.77988     12.70853         0.392001      0.220354     -1.396657
O       9.53338      5.66099      4.39978         0.697148      0.224301      0.063123
O       9.66362      5.82663      8.67931        -0.211689      0.346281      0.332331
O       9.97330      9.90621      0.35941        -0.895427     -0.149852     -0.569272
O       9.97105      9.98163     12.69615        -0.900533     -0.346065     -2.177391
O       9.63453     10.00645      4.31848         0.101059     -0.649081     -0.067047
O       9.62002      9.57680      8.64170         0.646787      0.435563      0.825462
O       3.75849      2.02423      2.40579         1.447657      0.456998      0.216503
O       3.76288      1.71352     14.77610         2.882624     -0.287646      0.144402
O       4.10599     13.71893      2.59513        -4.056940     -0.304069      0.401158
O       3.90365     13.63434     14.70766        -0.181418      0.937626      0.534355
O      15.55503      1.84116      2.68521         0.563766     -0.451875     -0.805833
O      15.54697      2.24733     14.60916         0.812947     -0.859969      0.706414
O       0.06579     13.57897      2.52365         0.818375      0.477255      0.164286
O       0.15548     13.62485     15.27642        -0.668093     -0.615399     -0.505612
O       3.97149      1.64494      6.53599         0.037484      1.558608     -1.401464
O       3.98689     13.71032      6.13922        -1.368742      1.140001      1.483749
O      15.52723      1.95517      6.95440         1.114342      0.712044     -0.943371
O       0.03192     13.27267      6.52861         0.380663      0.473226     -0.654347
O       4.04586      1.65222     11.03619        -1.916021      0.973831     -0.933057
O       3.88542     13.66907     10.71637        -0.468063     -0.056211     -0.056802
O       0.08126      1.95401     10.57195         0.341304     -0.498022     -0.006445
O       0.01156     13.73707     10.40173         0.894085     -0.413607      0.360711
O       3.71391      5.88141      2.13903         3.357066     -1.195856      1.367105
O       3.94213      5.56316     14.54109        -0.013367      0.888975      1.053741
O      15.59472      6.10038      2.39703        -0.695865      0.115597      0.438551
O       0.17612      5.74478     14.94652        -0.292512     -0.140989     -0.467285
O       3.98641      5.91784      6.74745        -1.817347     -0.801060     -0.390185
O      15.43411      5.96734      6.91350         1.642401     -1.096837     -1.419681
O       4.05775      5.95391     10.99288        -0.032659     -0.794406     -1.763979
O      15.35277      5.74514     11.00469         2.964407      0.316569     -1.459189
O       3.81494      9.96007      1.81940         2.759679     -0.735143      0.416992
O       4.09370      9.47401     14.86257        -1.027665      1.471159     -0.628951
O       0.15239      9.68761      2.06306        -2.446722      0.305112      0.434836
O       0.00662      9.34386     14.83920         0.881735      1.367272     -0.553005
O       3.84185      9.72750      6.63531         0.250750     -0.511555      0.475974
O       0.08867      9.72288      6.50996        -2.465901     -0.293060      0.213709
O       3.98682      9.80561     10.62917        -2.309227     -0.675352      0.267365
O      15.39897     10.01632     10.86827         1.374186     -0.865966     -1.621850
O       7.73877      1.85158      2.06224        -0.002870      1.403864      0.022832
O       7.62761      2.03876     15.04375         2.999005     -0.820960      0.163419
O       7.76060     13.74344      2.06383        -0.214097      0.016401      0.437090
O       7.85824     13.56302     15.03533         1.066877     -0.490272     -0.574503
O       7.89652      2.00744      6.64677        -1.286224     -0.085578     -0.109112
O       7.85565     13.77794      6.66845         0.740442     -1.543750      0.456958
O       7.80236      1.96902     10.55378         0.835024     -0.456393      1.641020
O       7.84656     13.75381     10.44790        -0.546844     -1.586169      1.170867
O       7.89045      6.02775      2.28606        -1.610027     -0.243352      0.627894
O       7.76795      6.01251     14.86001         0.837889     -0.200318     -0.826489
O       7.61810      5.90349      6.36369         3.255450     -0.437148      0.449762
O       7.70190      6.03548     10.58913         2.055630     -0.362374      0.469904
O       7.77099      9.46077      2.23539         0.819975      0.942811      0.322756
O       7.96816      9.49544     14.73395        -1.338454      1.624863      0.053165
O       7.81785     10.19127      6.27280        -1.172958     -1.039354      0.807094
O       7.83026      9.82388     10.55940        -0.524263     -0.199912      0.714638
O      11.63007      2.02580      2.26192         0.356247      0.055176      0.347215
O      11.65549      1.66869     14.92592         0.221740      1.494068     -1.407896
O      11.71009     13.68485      2.55143         0.011220      0.041334      0.320728
O      11.78220     13.56092     15.17548        -0.269627      0.508619     -1.110980
O      11.52826      2.07925      6.48224         1.149622     -1.001618      0.243529
O      11.78408     13.74116      6.72151        -0.943516      0.265010     -0.359521
O      11.80394      1.94924     10.98149        -1.197090     -0.305229      0.317584
O      11.75987     13.64395     10.87014        -1.908905      1.004378     -1.145563
O      11.74268      5.77906      2.29611        -0.999008      0.314217      0.381882
O      11.79230      6.00332     14.68744        -2.794505     -0.775222     -0.050074
O      11.51310      5.87184      6.33813        -0.061205     -0.442800      0.291437
O      11.86752      5.78631     10.69961        -2.867357     -0.183490      1.281711
O      11.81156      9.83203      2.38931        -0.579755      0.145861     -0.205136
O      11.72919      9.76735     14.90757         0.871905     -0.635220     -0.538395
O      11.64293      9.61077      6.16280         0.728943     -0.407681      1.119848
O      11.70507      9.86865     10.89486         0.434286     -0.391699     -1.282910
O       1.68592      3.84136      2.46181         1.031775      0.355174     -0.245407
O       2.27579      3.75821     15.06184        -1.286700      0.292589     -0.042311
O       1.97037      0.06050      2.31000        -0.048778     -1.974907      1.161834
O       1.70082      0.03405     14.84497         0.216893     -1.424447      0.525450
O      13.82254      3.94182      2.17169        -0.373630     -0.228215      1.251634
O      13.51852      3.88098     14.88675        -0.210968     -0.412405      0.075604
O      13.48654      0.02567      2.63846         0.963694      0.135867     -0.214238
O      13.81076      0.03000     15.15652         0.571022     -0.760846     -0.300333
O       2.05215      3.96991      6.66634        -0.068521     -1.839129      0.555015
O       1.87515     15.52636      6.76362        -0.585221      1.098520     -1.303633
O      13.84123      3.90262      6.39197        -1.296931      0.813247      0.714231
O      14.00242      0.00211      6.47514        -0.863102     -1.734085     -0.251383
O       2.09818      3.95637     10.79554         0.300357     -1.369059     -0.349459
O       2.10727     15.59485     10.15254         0.094673      0.214569      1.691813
O      13.76585      3.68588     10.66986        -0.552045      1.994772      0.812542
O      13.71023     15.49568     10.68855        -0.643128      2.118122      0.277712
O       2.13751      7.88303      2.33640         0.029037     -2.402989      0.488804
O       2.05803      7.72336     14.66858         0.507144      1.203224     -0.148962
O      13.57073      7.88804      2.42565         1.208737      0.098411     -0.693508
O      13.62121      7.71468     14.88556         0.392792      0.593564     -0.091254
O       1.84498      7.73885      6.56595         0.358863     -0.263230      0.593005
O      13.50787      7.67319      6.87932         0.548598      1.173161     -1.616756
O       1.76149      7.65799     10.38621         0.480066      2.548018      1.339149
O      13.72051      7.76750     10.43394        -0.344112      0.404874      0.591820
O       2.20189     11.46724      2.59396        -1.878113      4.660792      0.267293
O       2.23557     11.64338     14.73416        -1.026669     -1.199164      0.997118
O      13.78227     11.73690      2.39742        -0.245581     -1.008814     -0.300242
O      13.79018     11.62035     15.01925         0.487726      0.862941     -0.317077
O       2.13333     11.53538      5.91667        -0.527886      1.677852      1.773133
O      13.48780     11.61147      6.73112         0.560763     -0.508797     -1.363715
O       1.81128     11.73098     10.65576         0.438758      0.140946     -0.300664
O      13.49592     11.94818     10.98999         1.172921     -1.304157     -1.264240
O       5.98196      3.88078      2.40816        -0.539911      1.165809     -0.393396
O       5.95934      3.73707     14.73693        -1.227151      2.075877     -0.259863
O       5.90618      0.05221      2.22907        -0.842474     -0.086968      0.228471
O       6.04243     15.48265     14.96654        -0.806152      0.317482     -0.323754
O       5.74349      3.82600      6.51595         0.086672     -0.151881      0.069378
O       6.13736     15.52435      6.61742        -0.987779      2.595999     -0.236810
O       5.84554      3.72781     10.82351        -0.290195      2.019780     -0.183147
O       6.03536     15.47548     10.65691        -0.499881      0.326246      0.600599
O       5.52640      8.02705      2.68659         0.001378     -3.309255     -0.819243
O       5.70179      7.71788     15.04566         1.464697     -0.334077     -1.427368
O       5.78117      7.82174      6.67697         0.741628     -0.084837     -0.360258
O       5.71812      7.82385     10.52825         1.178557      0.101480     -0.016720
O       6.01918     11.64711      2.23637        -0.315355      0.224322     -0.420903
O       6.08104     11.55008     14.96145         0.420235     -0.787435     -1.206379
O       5.70333     11.90243      6.47434         0.583815     -3.356393      0.667712
O       5.65522     11.72160     10.38247         1.735025     -0.878832      1.361258
O       9.80214      3.89690      1.93387        -0.970376      1.016197      0.846081
O       9.57067      4.00526     14.82630         0.686220     -0.240832      0.680174
O       9.59422      0.15932      2.48484         0.178902     -0.845890     -0.322956
O       9.60946      0.02549     14.89920        -0.152692     -1.347443     -1.065157
O       9.68447      3.77030      6.71941        -0.497458      2.649328     -0.472502
O       9.65730      0.03927      6.20067         0.758365      0.339501      1.223550
O       9.67860      3.85465     10.76820         0.176920      1.247007     -0.282456
O       9.61397     15.57570     11.01424         1.261514     -0.171430     -0.127731
O       9.72462      7.90738      2.32220         1.325845     -2.230314      0.398126
O       9.67925      8.00859     14.73053         1.378936     -3.263594      0.365009
O       9.52007      7.92899      6.46011        -0.198787     -2.276420     -0.522965
O       9.92960      7.79426     10.79594        -1.022379     -0.687484     -0.056335
O       9.69688     11.87495      2.46911         0.237566     -3.014951     -0.409355
O       9.94646     11.69180     14.90869        -1.083534      0.848549      0.472127
O       9.91799     11.65357      6.64826         0.307228      1.714603      0.219201
O       9.73228     11.68574     10.49579        -0.158616      1.309353      0.278266
