  # total energy = -7840.25068850 
CRSYTAL
PRIMVEC
    15.6080000000000005    0.0000000000000000    0.0000000000000000
     0.0000000000000000   15.6080000000000005    0.0000000000000000
     0.0000000000000000    0.0000000000000000   16.6239999999999988
PRESSURE
2.1883 2.98963 -1.63104 0.05156 0.032074 0.106058
PRIMCOORD
320 1
Pb       3.47993      3.50360      4.22793         1.045518     -0.155313      0.271044
Pb       3.72453      3.83540     16.58269         0.693083      0.607720     -0.062361
Pb       3.67180     15.39886      3.90791        -0.467084      0.586584      0.923562
Pb       3.97992      0.04478      0.00728         0.164586     -0.110951     -0.494688
Pb      15.30147      3.86688      4.08301         0.570386      0.396193     -1.086583
Pb       0.04956      4.00805     16.34351        -0.172355     -0.500977      1.660273
Pb       0.06197     15.57202      4.00446         0.380513      0.180223     -0.395822
Pb      15.33748      0.01379      0.13965         0.415414      1.324910      0.545448
Pb       3.90224      4.12122      8.24913         0.075193     -2.055824     -0.935654
Pb       4.04338     15.58129      8.12746        -0.836808     -0.165730      0.365374
Pb       0.26172      3.69279      8.66388        -0.914691     -0.017750     -0.523577
Pb       0.27970     15.55830      8.70197        -0.063422     -0.355769      0.452737
Pb       3.87565      3.92519     12.72763         0.969018     -0.029912     -0.014610
Pb       3.85239     15.44145     12.80363         0.333825      0.010196     -1.114308
Pb      15.54880      4.17992     12.42913        -1.102858     -0.325367     -0.118675
Pb      15.42806     15.49755     13.04307         1.459991      1.555007     -1.932628
Pb       3.89732      7.32452      4.11494         0.860741      1.642302     -0.057945
Pb       3.90749      7.52162     16.53635        -0.107675     -0.192552      0.177363
Pb      15.52235      7.46544      4.54343        -0.217522      1.830331     -1.102901
Pb      15.41733      7.72224     16.61246         0.699273      0.841825      1.208413
Pb       3.93289      7.64012      8.10516        -0.333634      0.839399      0.123152
Pb      15.53603      7.95547      8.30988        -0.100052      0.069985     -0.303128
Pb       4.03086      7.77077     12.15230        -0.236105     -0.359213      0.641480
Pb      15.27422      8.01109     12.47996         0.861294     -0.822393     -1.047650
Pb       4.05819     11.61545      4.05706        -1.264577      0.090099      0.996956
Pb       3.96094     11.44564     16.48379         1.370220     -0.093651     -0.330963
Pb      15.54553     11.84792      3.98166         0.588557     -0.719763      0.687872
Pb       0.10054     11.54549      0.12654        -0.735863     -0.878471      0.169939
Pb       3.95210     11.46535      7.93318        -0.481220      0.776040      0.660749
Pb       0.15043     11.85416      8.68936        -0.412535      0.212006     -0.807493
Pb       4.01204     11.39214     12.40758        -0.672374      0.735069      0.173747
Pb       0.06281     11.65920     12.71389         0.706349     -0.365601     -1.014735
Pb       7.51420      3.75498      4.25076         0.286834     -0.379172     -0.284087
Pb       7.67957      4.22355      0.17924         0.903632     -1.052283     -0.292902
Pb       7.56573     15.45913      4.43558         0.298075      0.307568     -0.620722
Pb       7.72119     15.40852      0.12228        -0.203129     -0.121760     -0.711218
Pb       7.99929      3.76294      8.45031        -1.576706     -0.290608     -0.125556
Pb       7.73032     15.54780      8.19449        -0.405269     -0.325908      0.875386
Pb       7.65943      3.80632     12.53471        -0.291979      0.441285     -0.538396
Pb       7.83260      0.20272     12.32642        -0.774411     -0.849863     -0.095888
Pb       7.94728      7.85049      4.33248         0.247457      0.033653     -0.897110
Pb       7.70257      7.53983      0.04464         0.502716      1.073787      0.156370
Pb       7.63451      7.76184      8.19567         1.102455      0.558848     -0.034801
Pb       8.02167      7.74034     12.15859        -0.267913     -0.114525      0.319201
Pb       7.98899     11.49481      4.26902         0.136052      0.399846     -0.106379
Pb       8.07045     11.80290      0.05661        -1.394416     -0.651495     -0.403896
Pb       8.42078     11.61922      8.32771        -2.293909      0.278288     -0.004171
Pb       7.38841     11.26261     12.30004         3.001802      2.350886      0.782360
Pb      11.46263      3.70086      4.46928        -0.145856      0.294518     -0.930251
Pb      11.51829      3.90657      0.10993         0.001832     -0.014606      0.651745
Pb      11.71554      0.14880      4.31320        -0.635643      0.683564     -0.514300
Pb      11.47206      0.04438     16.61848         0.031531      1.410133      0.932239
Pb      11.70838      3.50275      8.34588         1.433583      0.738441      0.922409
Pb      11.89294     15.32948      8.63116         0.019723      1.507525     -0.507951
Pb      11.66650      4.08683     12.38106         0.123514      0.019607     -1.043466
Pb      11.87226     15.54990     13.08301        -2.093687      2.181351     -2.916992
Pb      11.79627      8.02798      4.12858         0.027953      0.241146     -0.280002
Pb      11.42022      8.02117      0.01463        -0.301847     -0.078001      0.228738
Pb      11.64305      7.73022      8.19939         0.486906      0.617830     -0.141479
Pb      11.58773      7.98393     12.56213         0.716581     -0.634465     -0.627893
Pb      11.67596     12.14156      4.32458         0.156290     -1.134180      0.188215
Pb      11.48336     11.89219      0.09843         0.037449     -0.963097     -0.670275
Pb      11.81512     12.24914      8.68243         1.093923     -3.223692     -1.306446
Pb      12.19168     12.02537     12.81798        -1.658934     -1.282982     -0.771170
Ti       1.78853      2.13193      2.03693        -1.171136     -1.539849     -0.535330
Ti       2.13365      1.86075     14.65522        -0.443367      0.502641      1.123672
Ti       1.99954     13.64994      1.75988        -1.749129      0.190505      2.391919
Ti       1.86639     13.61647     14.78432         1.086696      0.020850     -2.564878
Ti      13.31711      2.12517      2.15097         1.794283     -1.674803     -1.528722
Ti      13.62225      2.16035     14.60449         0.702962     -0.591269      0.669326
Ti      13.52736     13.78520      1.99772         0.185838      1.613705      0.412368
Ti      13.53763     13.83718     14.80629         1.091376     -2.421193      1.131909
Ti       1.79803      1.88367      6.43845         2.490692     -1.111661     -0.016973
Ti       1.85344     13.70690      6.46393        -0.818842     -0.191514     -0.530201
Ti      13.82017      1.92610      6.09021        -3.813232     -1.081829     -0.704904
Ti      13.60110     13.93472      6.18179         1.959145     -1.920090      1.559390
Ti       1.96580      2.03166     10.88357         0.431609     -2.857886     -0.278874
Ti       2.09978     13.61507     10.72067         0.091497      2.343612     -1.255640
Ti      13.74948      2.07942     10.59467        -0.468214     -0.236758     -0.598406
Ti      13.85611     13.82186     10.68744         0.241076     -0.666898     -0.814198
Ti       1.98935      5.88657      2.15691        -1.774312     -1.543633     -1.735812
Ti       1.87135      5.78909     14.48828         1.327143      0.570796      1.595251
Ti      13.55579      5.95383      2.08524         0.679452      0.550516     -1.316764
Ti      13.70086      5.93511     14.68970        -2.385934     -0.152676     -1.284693
Ti       1.91258      5.79953      6.12191        -0.372581     -1.109747      0.404649
Ti      13.52720      5.80221      6.29102         0.325117      1.136724      0.396719
Ti       1.99124      5.88515     10.47164        -1.699346      0.939718     -1.013241
Ti      13.55069      6.01979     10.14321        -1.109844     -1.358942      2.716706
Ti       1.86355      9.73701      2.22242        -1.117661      0.130878     -1.031783
Ti       1.81288      9.54948     14.49996         0.821128      0.321622     -0.714288
Ti      13.56872      9.93689      2.07169        -0.101182     -1.773656      0.601530
Ti      13.52778      9.78232     14.69421        -0.949467     -0.283368      1.722705
Ti       1.90822      9.63976      6.36628        -2.106557      2.093593     -1.683517
Ti      13.65950     10.09199      6.24610         0.062270     -0.422330     -1.130805
Ti       2.07483      9.57417     10.36606        -2.049558      2.304900     -0.687626
Ti      13.53887      9.96474     10.38467         1.670849     -1.130036      0.206263
Ti       5.72202      1.95616      2.00398         0.231740      0.607051      0.362118
Ti       6.09442      1.84747     14.77402        -1.777730      0.666782     -0.965204
Ti       5.91539     13.58743      2.23918         0.529981     -0.879802     -2.128210
Ti       5.82053     13.68609     14.52282         1.836219     -1.557843      1.254594
Ti       5.86737      1.81560      6.23122        -2.017673      1.433396      0.824287
Ti       5.79534     13.45413      6.26067        -0.576676      0.377572      0.478617
Ti       5.73897      1.89980     10.25401         0.069580      1.661594     -1.595163
Ti       6.06628     13.71723     10.41415        -3.002634     -0.794516     -1.243823
Ti       5.88508      5.78517      2.21789         0.039530      0.387236     -1.651443
Ti       5.93763      5.77462     14.48470         0.626043     -1.179010      1.481192
Ti       5.97060      5.77800      6.08305         0.454286     -0.980128      1.659862
Ti       5.80245      5.75342     10.24787         1.409785     -0.445337      0.700025
Ti       5.75626      9.71306      2.23715         2.011419     -1.009350     -1.971556
Ti       5.77376      9.55011     14.43259         0.338781      3.617985      1.983198
Ti       5.86786      9.59965      6.08258         0.195517      0.048472      0.181474
Ti       5.90263      9.63818     10.19268         0.569220      0.504225     -0.695702
Ti       9.46148      2.16756      2.40300         1.840894     -0.297945     -1.057926
Ti       9.75606      2.14696     14.49903         1.627553     -1.474123     -1.069613
Ti       9.68438     13.93619      2.07288        -0.113538     -2.653081      0.149699
Ti       9.55831     13.69686     14.41569        -1.054923     -1.200957     -0.388005
Ti       9.74146      1.89704      6.54766         0.671735     -1.323265     -3.329264
Ti       9.68173     13.78759      6.28862         0.470683     -1.775450      1.080796
Ti       9.85457      1.78223     10.37072         0.329291      0.436818      1.844952
Ti       9.87412     13.60136     10.63735        -0.676384     -0.397058      0.385070
Ti       9.76777      6.01363      2.27276         0.575077     -1.371402     -0.968047
Ti       9.92304      5.82645     14.58467        -2.010012      1.812702      0.879347
Ti       9.85310      5.77634      6.27420        -1.033282      1.470207     -1.415996
Ti       9.61574      5.82265     10.13016         2.596845      0.118484      0.479489
Ti       9.70269      9.93836      2.16710        -0.282582     -2.478955     -1.014909
Ti       9.45379      9.71929     14.47604         1.259428      0.667386      0.296576
Ti       9.81923      9.58077      6.33406         0.769858      1.972214      1.223581
Ti       9.84102      9.84063     10.36288        -0.255830     -1.359965      0.063043
O       2.04532      1.89027      0.10398         0.051775      0.608425      1.479716
O       1.90980      1.90943     12.75546         0.632025      0.435084     -0.607174
O       1.64987     13.70767      0.03749         0.816830     -0.115726     -2.002619
O       1.91468     14.00848     12.73686        -0.688229     -1.771193      0.962616
O      12.99074      1.91173      0.13105         1.852673      0.738004      1.820868
O      13.73963      2.07639     12.74345        -0.464196      0.311203     -0.041403
O      13.38616     13.83388      0.06818        -0.196183      0.022416      0.272397
O      14.07878     13.48690     12.65630        -1.792129      0.428590      0.805543
O       1.75915      1.75504      4.28729         0.893696      0.984477     -0.189618
O       1.75206     13.71762      4.65227         0.296598     -0.238877     -1.364032
O      13.61300      1.58261      4.13959         1.086450      1.386777      2.167503
O      13.61630     13.96449      4.39623        -0.214034     -0.818560     -1.483283
O       1.95776      2.03844      8.33866        -1.106500      0.225963      0.077641
O       1.94276     14.01210      8.72220         0.334972     -1.778935     -0.733409
O      13.80057      2.27576      8.72987         0.599145     -0.732242     -0.632625
O      13.56913     13.70135      8.76759        -0.161724      1.107174     -1.048668
O       1.92603      5.55403      0.12295         0.869991      0.488542     -0.479763
O       2.29798      6.02950     12.78403        -1.365995     -0.871965     -1.085036
O      13.92478      5.94926      0.20059        -1.334677     -0.655327     -0.086092
O      13.15261      5.72349     12.93402         2.137502      1.087973      0.580498
O       1.88401      5.71920      4.22099         1.086902      1.117194      0.554979
O      13.64957      6.09507      4.48245        -0.470576     -0.700290     -1.213393
O       1.97582      5.88775      8.55691         0.019409     -0.631197      1.010858
O      13.48918      5.88202      8.38630         1.344879     -0.316514     -1.050467
O       1.81816      9.77668      0.40789         1.003913      0.069027     -0.843608
O       2.03751      9.74920     12.65622         0.208784     -0.655881      1.055269
O      13.64405     10.02753      0.23777        -0.803360     -0.086952     -1.106730
O      13.78433      9.81740     12.92599        -0.690521      0.952893     -1.271909
O       1.58156      9.81606      4.56612         0.309370      0.143649     -1.501487
O      13.50516      9.92679      4.29453         0.551535     -0.368983      2.035362
O       2.16718      9.45450      8.46692        -0.772303      0.551752      0.386113
O      14.09408      9.59593      8.71358        -2.273080      1.237081      0.332057
O       5.77390      1.90922      0.07849         0.489085     -0.375212      3.452989
O       5.69277      1.74039     12.95075         1.538687      0.775348     -0.322979
O       6.08972     13.58081      0.31812        -0.547355      0.238385      1.840305
O       6.02118     14.05654     12.80734        -0.101428     -0.307234     -1.680083
O       5.54870      2.04347      4.44756         1.419244     -0.284626     -0.635196
O       5.63488     13.48870      4.44565         0.774106      0.353378     -0.697512
O       5.80476      2.01904      8.39053         0.843045     -0.063598      1.951399
O       5.87070     13.68375      8.61522        -0.322549      0.154716     -0.095245
O       6.01026      5.67503      0.09736        -1.608417      1.661719      1.028642
O       5.77535      5.46561     12.68811         0.702246      0.612789     -0.342325
O       5.94740      5.78510      4.24183        -0.512728      0.028415      1.324389
O       6.06909      5.88568      8.40593        -1.037703     -0.435356      0.896481
O       5.90236     10.05080      0.39419        -1.682872     -0.934425     -0.219474
O       5.90243      9.69635     12.61823        -1.629616     -1.039637     -0.976500
O       5.82193      9.60321      4.28190         0.437734      0.078892      0.790252
O       5.72506      9.39098      8.42921         0.244393      0.894014     -0.509609
O       9.68693      2.15315      0.53781         0.678138     -0.039755     -0.695339
O      10.05754      2.27884     12.31327        -1.810248     -2.170866      0.812555
O       9.60901     13.82557      0.12474         0.217426     -0.836939      0.618860
O       9.62212     13.51742     12.51718        -0.164287      0.362354     -0.489948
O       9.74153      1.67663      4.40306        -0.514916      0.732706     -0.296331
O       9.64147     13.76138      4.48548        -0.028160      0.235547     -0.866413
O       9.76022      2.05614      8.36023         0.673321      0.650324      1.553209
O       9.91055     13.33769      8.52192        -0.733718      2.064817      0.536388
O       9.58108      5.90049      0.26179         0.236488     -0.279101      0.572470
O      10.08435      5.95096     12.81213        -0.691016      0.612507     -0.916551
O      10.09073      6.00257      4.38589        -1.238990      0.112418      0.000492
O       9.66563      5.69811      8.30460         0.031485      0.447977      0.955140
O       9.59882      9.65823      0.35393         0.206317      1.021317      0.006614
O       9.43934      9.73049     12.60253         0.668663     -0.425123      0.425400
O       9.74544      9.77082      4.56008        -0.657386     -0.198758     -2.748302
O       9.72976      9.65477      8.53584         0.406444      0.376997     -0.412504
O       3.90842      2.01606      2.40890        -0.806397     -0.883362     -1.044001
O       4.10024      2.11273     14.94684        -2.893512     -0.486241     -1.086749
O       3.72805     13.48570      1.97196         1.927477      0.244134      0.667653
O       4.02970     13.86124     14.86566        -3.571590     -0.326484      0.149132
O      15.54668      1.92699      2.08445         0.761882      0.241055      0.092788
O      15.46325      1.80085     15.03123        -0.564200      0.264028     -0.710951
O      15.38253     13.85609      1.87372         0.083085     -0.956089      1.178304
O      15.47028     14.06601     14.78177         1.161267     -1.696906      0.767493
O       4.07064      2.00951      6.70415        -1.143631      0.683955     -0.923354
O       4.01323     13.63755      6.62895        -1.248977     -0.669205      0.274597
O      15.52381      1.81057      6.29740         2.675241      0.049907      0.530971
O      15.51724     14.04566      6.60922         0.144382     -0.308969      0.003196
O       3.90610      2.22624     10.61237        -0.553002     -0.037202      0.006409
O       3.94230     13.77365     10.90272         0.008981     -1.357516      0.133500
O       0.14524      1.90169     10.70348        -1.408192      0.352012     -0.580517
O       0.01359     13.57807     10.47161         1.048484      0.466606      0.427335
O       4.01185      6.01789      2.11120        -2.619902     -0.406110      0.459099
O       3.99038      5.59576     14.57941        -0.835467      0.740946      1.716469
O      15.58657      5.64984      2.13992        -1.008830      0.420885      1.725180
O       0.04110      5.82351     14.69017        -1.367843     -0.757646     -0.584542
O       3.93543      5.82450      6.48843         0.287282     -0.275327     -0.941291
O       0.06623      5.70306      6.04915        -0.123365     -0.245489      1.437393
O       3.89931      5.76642     10.69429         0.741600     -0.382723     -0.811952
O       0.02773      5.92645     10.96280         0.205492      0.825197     -0.991917
O       3.74091      9.75438      2.72306        -0.971761     -1.153711     -1.436120
O       3.73366      9.54391     14.80194         0.181847      0.318802      0.234890
O      15.45278      9.76950      2.10924         0.757953     -0.027327      1.002341
O      15.48149      9.89978     14.88544         0.799376      0.302832     -0.294480
O       3.73543      9.69157      6.26426         1.564059      0.080763      0.493788
O      15.54525      9.94061      6.60998        -0.881373     -1.070548      0.018996
O       4.02012      9.43875     10.42300        -0.135879      1.848516      1.300752
O       0.18435      9.45761     10.75562        -1.493702      0.020240     -0.196847
O       7.66476      1.97873      2.38679        -0.937391     -0.693066      0.499945
O       7.98420      1.93407     14.65846        -0.969375     -0.695638      0.023060
O       7.79365     13.56877      2.41153        -0.604884      0.321177      0.291761
O       7.76601     13.72853     14.85901         0.013194     -0.269992     -0.053429
O       7.89539      1.77987      6.39325        -0.959685      0.404513     -0.034016
O       7.61225     13.78802      6.55247         1.740577     -0.176336     -0.604871
O       7.96026      1.95583     10.21459         0.490199      0.191304      1.229494
O       7.76907     13.96506     10.45004         2.904135     -0.582182      0.884236
O       7.65862      5.86835      2.19548         2.661919     -0.084235      0.584905
O       7.82854      6.00918     14.78244        -0.533813     -0.718024     -0.944753
O       7.98877      6.27734      6.43691        -2.446555     -1.258865     -1.534444
O       7.85842      5.83249     10.78146        -0.251269     -0.544141     -0.767042
O       7.68429      9.70944      2.29075         0.723872      0.408036      1.552796
O       7.61865      9.81538     14.63221        -0.215294      0.209759      0.325253
O       7.81822      9.42289      6.43174        -1.575334      0.429892     -0.475684
O       7.80384      9.85173     10.39667        -0.669720     -0.963715      0.779690
O      11.64628      1.89430      2.57079        -2.307536      0.952841     -0.050027
O      11.61602      1.71899     14.91103        -1.633726      1.196635     -2.170791
O      11.54641     13.74155      2.12764         1.007074     -1.056274      0.618354
O      11.53546     13.75339     14.34448         1.836666     -0.716757      1.256006
O      11.68247      1.83757      6.23968        -0.279882      0.821163      0.545919
O      11.57575     13.53504      6.49435         0.897205      0.880182     -0.545219
O      11.88199      1.84932     10.33470        -1.490864     -0.005430     -0.171021
O      11.83430     13.39269     10.74821        -1.840472      1.367868      0.234197
O      11.68048      5.63732      2.06169         0.035903      0.533361     -0.051529
O      11.66393      6.03204     14.96290        -0.142823     -0.854843      0.925705
O      11.70874      5.99096      6.39080         1.078909     -0.916638      0.674868
O      11.71239      5.91260     10.30567        -0.086904      1.048988      0.285839
O      11.57178      9.74065      2.23931         0.314565      1.006237      0.164251
O      11.50871      9.76533     14.83755         1.454376      0.016183     -0.421181
O      11.63053      9.91668      6.42996         1.929728     -0.190925      0.506675
O      11.69952      9.79863     10.79865         0.474388      0.005733     -0.486625
O       1.89951      3.96520      2.27917         0.502855     -2.453300     -0.011010
O       1.79022      3.73281     14.72720         0.571088      1.875012     -0.709765
O       1.90733     15.50277      2.20524         0.210118      0.057245      0.001726
O       2.02624      0.06635     14.75566         0.296846     -1.304612      0.325545
O      13.58610      3.94312      2.29458        -0.147407     -0.272738      0.505110
O      13.69772      3.96033     14.82552        -0.572081      0.046397      0.350164
O      13.44273      0.10145      2.10019         0.334709     -2.153174     -0.403140
O      13.48101      0.07123     14.56752         0.447590      0.051653      0.666344
O       2.13327      3.77508      6.19970        -0.824664      1.329313      0.742218
O       2.28926      0.00890      6.38448        -0.611417      1.739091      0.629630
O      13.56420      3.73091      6.07124         0.050785      2.003733      0.496514
O      13.51336      0.07544      6.50326        -0.785693      0.977966      0.681295
O       1.49789      3.93810     10.59134         2.297314      0.330818      0.558330
O       1.99735     15.50869     10.64887        -0.243398      2.459088      0.473954
O      13.56745      4.05400     10.57633         1.089776     -0.314041      0.897598
O      13.79275      0.00361     10.82859        -0.433000      1.203277     -0.270743
O       1.57167      7.51353      1.74360         1.142861      3.511430      1.303050
O       1.42948      7.76367     14.87327         2.452615      0.230368     -0.437336
O      13.23920      7.88271      2.12134         1.416589     -1.309561      0.670973
O      13.45964      7.77773     14.66984         1.044219      2.132099      0.561770
O       1.78286      7.78588      6.32670         0.296162     -2.315356     -0.006319
O      13.67743      7.80696      6.68768         0.515012     -0.418135     -1.050254
O       2.11211      7.83022     10.65778         0.105680     -3.767573      0.472869
O      13.61359      7.79170     10.91928        -0.427870      0.414684     -0.710514
O       1.63942     11.73057      2.02193         0.276441      0.143303      1.356502
O       2.09799     11.74173     14.39315        -0.910283      1.304320      1.416181
O      13.61909     11.72538      2.46678        -0.513541      2.746218     -0.623198
O      13.45248     11.99422     14.90726         0.127537     -1.765547     -0.679445
O       1.69433     11.87146      6.69195         1.633776     -0.869877      0.506276
O      13.66892     11.93372      6.32539        -0.066941     -0.885233     -0.105815
O       1.52539     11.49512     10.55327         2.589048      1.469233      0.496071
O      13.72820     11.78991     10.41528         0.414181     -2.309519      1.290575
O       5.87582      3.81492      2.21890        -0.176345     -0.368201      0.083634
O       6.12701      3.87750     14.95444        -0.018246     -0.133309     -1.587390
O       5.76940     15.42813      2.60532        -0.041432      1.007339     -1.035426
O       5.81967     15.52262     15.06729         0.836003      2.015295      0.147992
O       6.17026      3.85750      6.37746        -0.202954      2.642310     -0.179320
O       5.78290     15.59146      6.42210         0.561172     -0.872900     -0.393012
O       6.12604      3.91313     10.50069        -0.577418      0.216150     -0.182789
O       5.95698      0.18246     10.54948        -0.305523     -1.091258      0.416174
O       5.89865      7.68497      2.27638        -1.123453      1.265603      0.152527
O       5.80734      7.91022     14.87426        -0.311492     -3.936598      0.179231
O       5.68603      7.77459      6.30358         0.015976     -1.929173     -0.022308
O       5.90908      7.72565     10.55912         0.341712     -0.879905      0.325247
O       5.64823     11.60025      2.43482         0.263603      1.571569      0.505302
O       5.66380     11.74635     14.67643        -0.665096     -0.706121     -0.606766
O       5.64448     11.44301      6.28177         0.713107      1.610614      0.468488
O       6.04419     11.73323     10.53772        -1.732557     -0.545650      0.194787
O       9.60024      4.09050      2.53250        -0.223870     -2.457128      0.531650
O       9.63271      3.91816     14.37245         0.732495      0.594741      1.236990
O       9.74754      0.01004      2.12981        -0.705147      2.347107      0.675399
O       9.65478     15.51542     14.44634         0.359825      1.639848     -0.026031
O       9.75056      3.96028      6.11657        -0.356322     -1.682031      0.993963
O       9.74520     15.60128      6.83267         0.135883     -0.737018     -0.691132
O      10.12829      4.05326     10.38686        -1.412711     -0.879192     -0.346572
O       9.77962     15.45385     10.27106         0.902763      1.685887      0.452519
O       9.81554      7.79999      2.39014        -0.396628      0.548058      0.407016
O       9.46302      7.91941     15.06012         1.369502     -0.374804     -1.524633
O       9.94881      7.79692      6.57057         0.071993     -0.454127     -0.063147
O       9.66712      7.87796     10.50326         0.280225     -1.513524      0.471912
O       9.64779     11.71705      2.22136         0.079678      1.597342      0.530801
O       9.66398     11.68798     14.78153         0.114209      0.352112      0.580592
O       9.49395     11.73267      6.36347         0.071164      0.301815     -0.661058
O       9.74855     11.65437     10.34221        -0.240444      1.411868      1.041883
