  # total energy = -7845.81619899 
CRSYTAL
PRIMVEC
    15.6080000000000005    0.0000000000000000    0.0000000000000000
     0.0000000000000000   15.6080000000000005    0.0000000000000000
     0.0000000000000000    0.0000000000000000   16.6239999999999988
PRESSURE
2.40542 1.31014 -2.26461 0.040454 0.035721 0.061574
PRIMCOORD
320 1
Pb       3.91569      4.11246      4.21972        -0.030840     -0.466063     -0.652458
Pb       3.88621      4.08884      0.16775         0.233853     -1.166743      0.130588
Pb       3.97851      0.12240      4.40628         0.059614     -0.296041     -1.071387
Pb       3.75917     15.42168     16.56977         1.002880      0.319425      0.254878
Pb       0.09525      4.02067      4.25906        -0.174483     -0.746580      0.329037
Pb       0.04467      3.79285      0.05305         0.242618     -0.708504     -0.034026
Pb      15.51763     15.50949      4.47290        -0.458385      0.009674     -0.454214
Pb       0.31941     15.42633     16.59870        -1.512966      1.516168      0.965542
Pb       3.89611      3.68398      8.30740         0.240013      1.135686      0.635057
Pb       3.82149      0.00841      8.29739         0.180166     -0.761035      1.059306
Pb      15.40873      4.08710      8.15999        -0.192043     -1.533238      0.361372
Pb      15.37965      0.15929      8.12072         0.252994     -0.562715      0.686663
Pb       4.08955      3.88212     12.39701        -0.101521     -0.426883     -0.117644
Pb       3.83478     15.59636     12.40287        -0.169098     -0.477259     -0.583049
Pb       0.01296      3.65206     12.61553        -0.464274     -0.159244     -0.220918
Pb       0.04977      0.07723     12.32054         0.049409     -0.146831     -0.680032
Pb       3.69124      7.89866      4.25885         0.445892      0.192664      1.047468
Pb       3.60126      8.05703      0.12746         1.745674      0.031265      0.059373
Pb      15.50266      7.93571      4.10052         0.821613      0.686108      1.657955
Pb       0.08824      7.92190      0.16750        -1.147687      0.671111     -0.250191
Pb       3.78235      7.92217      8.57659         0.531784      0.525316      0.145577
Pb       0.01081      7.52615      8.44728        -0.098060      1.632350      0.441572
Pb       3.86212      7.75643     12.68358         0.081224      0.351714     -0.568720
Pb       0.23298      7.47225     12.76463        -1.145176      1.014192      0.498908
Pb       3.87701     11.78163      4.30147         0.699622     -0.329476     -0.063003
Pb       3.73819     11.77615     16.58471         1.278690      0.323143     -0.235345
Pb      15.50442     11.61931      4.63331        -0.597008      0.099372     -0.001057
Pb       0.07127     11.83517      0.00594        -2.951227     -1.756343     -0.000327
Pb       3.90951     11.69527      8.64876        -0.624251     -0.345323      0.093065
Pb      15.51024     11.24144      8.27356        -0.061829      0.604174      0.579159
Pb       3.59604     11.82892     12.49164         0.600760      0.157207      0.035932
Pb      15.45788     11.72463     12.38823         0.507036      0.747780      0.774649
Pb       7.71622      4.15237      4.23776         0.620029     -1.297154     -0.363232
Pb       7.84947      3.65513      0.01223        -0.120027     -0.806220      0.097434
Pb       7.69390      0.13212      4.01797         1.186682      0.068056      0.536934
Pb       7.72422      0.20190      0.06969         0.649173     -0.315371      0.096457
Pb       7.87996      3.93843      8.62993         0.130487      0.269820     -0.136158
Pb       7.77579      0.21392      8.30306         0.655664     -1.193927      0.963764
Pb       7.97479      3.76102     12.63940        -1.122923     -0.030429     -0.231540
Pb       7.65655     15.35572     12.65793         0.567651      0.243744      0.239799
Pb       7.76543      7.71641      3.94564         0.197219      0.764296      0.275090
Pb       7.85388      7.94794     16.38957        -0.864486     -0.802609      1.701448
Pb       7.91418      7.73394      8.30839        -0.500326      0.086686     -0.475856
Pb       7.60227      7.69174     12.74393         0.245292     -0.169135     -1.195966
Pb       7.59791     11.92229      4.26342         0.071366     -0.872494     -0.417328
Pb       7.58621     11.34553     16.60783         1.207072      2.038967      0.109482
Pb       7.53283     11.88798      8.54545        -0.165991     -1.000803     -0.246423
Pb       8.03726     11.99180     12.73794        -0.829845     -0.594319      0.600208
Pb      12.02468      3.99310      4.04197        -0.759322      0.158366     -0.199031
Pb      11.97450      3.79389      0.07553        -0.876483     -0.233183     -0.577671
Pb      11.83461     15.49738      4.06298        -1.008188     -0.316657     -0.692641
Pb      12.08803     15.54009      0.25499        -1.131718     -0.780088      0.002798
Pb      11.59849      4.00883      8.36421         0.175325     -0.011197      0.473363
Pb      11.41815      0.21312      8.14090         0.546227     -0.868046      0.665065
Pb      11.78671      3.84443     12.71216         0.920865      0.724817     -0.077600
Pb      11.71128     15.59334     12.16599        -0.245414     -1.594282      0.822350
Pb      11.64232      7.68714      4.13632        -0.768543     -0.286511     -0.804665
Pb      11.93539      7.72421     16.54676        -1.221712      0.491563      0.123281
Pb      11.59051      7.77403      8.34878         0.261215     -0.026001      1.357628
Pb      11.69424      7.74940     12.42345         0.230249     -0.195133      0.188823
Pb      11.62269     11.69039      4.34332        -0.453527      0.363334     -0.463585
Pb      11.74486     11.64040      0.17227        -0.320887      0.607426     -0.277081
Pb      11.72127     11.15624      8.16531        -0.472829      1.266705      1.034533
Pb      11.40680     11.53072     12.18792         1.104942      0.601474      1.107576
Ti       1.94361      1.92247      2.29402         0.495100     -0.913506     -1.084875
Ti       2.09833      1.94810     14.68721        -0.257471     -1.172460      0.334428
Ti       1.87717     13.56260      2.35791         1.699042      1.192130      1.181789
Ti       1.72473     13.69705     14.62856         1.681033     -0.655062     -3.816256
Ti      13.73545      1.96952      1.97711         0.544132     -1.867701      0.167326
Ti      13.74048      1.84052     14.46145        -1.219197      0.637124      1.881762
Ti      13.83493     13.49475      2.07391        -3.029689      0.729076      0.782009
Ti      13.53437     13.68348     14.26838        -1.110144     -0.828082      1.460360
Ti       2.09710      1.98251      6.29279        -2.494561      0.073643     -1.207356
Ti       1.90986     13.72828      6.41943        -0.798339     -1.321491      1.421188
Ti      13.57438      1.90025      6.11130        -0.184019      2.220742     -0.471775
Ti      13.33206     13.64036      6.47114         1.471778     -1.016003     -0.620252
Ti       1.89700      1.98067     10.21949         0.923371     -0.355845      0.961465
Ti       1.72304     13.74207     10.39512         1.576452     -0.240602      0.131128
Ti      13.49672      1.91912     10.26737         4.353832      0.727189      0.642682
Ti      13.60305     13.54130     10.17322         1.084778     -0.099745     -0.338620
Ti       1.85897      6.02118      2.38700         0.764790     -0.616417     -1.227361
Ti       1.92288      5.83591     14.98156        -0.636260     -1.144404     -0.526819
Ti      13.87952      6.00895      2.30423        -4.889990     -1.202965     -0.168913
Ti      13.72879      5.91461     14.90147        -0.746763      0.563311     -3.334163
Ti       1.95406      5.92192      6.58651         1.445168      1.252081     -3.960855
Ti      13.82109      5.84996      6.29415        -2.146417     -1.159072     -1.151606
Ti       1.95836      5.79740     10.62575         1.395259     -0.286772      0.618060
Ti      13.76840      5.87416     10.76249        -2.675724     -1.277724      0.120875
Ti       1.89877      9.96921      2.25988        -2.599912     -1.568403      1.044446
Ti       1.82719      9.78233     14.84063        -0.042506      1.231112     -2.973818
Ti      13.50790      9.67912      2.20017        -0.003551      3.368544     -0.464479
Ti      13.54831      9.81731     14.75377         0.158445     -2.084892      0.181341
Ti       2.05524      9.89244      6.41929        -1.928394     -1.040527      0.915812
Ti      13.63346      9.44052      6.34773         0.719781      2.823287      0.492513
Ti       1.90428      9.70072     10.85598         1.939032      0.207289     -1.790587
Ti      13.76478      9.68038     10.76740        -1.884794      0.229564     -1.977301
Ti       5.74177      1.85010      2.17377         0.108468      1.385826     -1.570344
Ti       5.82627      1.79978     14.64764         0.707243      0.627536     -0.773578
Ti       5.75896     13.71728      2.28545        -0.879067     -1.938802     -0.775136
Ti       5.75548     13.46016     14.78125        -0.354284      0.904491      0.682382
Ti       5.88969      1.93918      6.39356         2.000005      0.241766     -1.690832
Ti       5.66301     13.58551      6.48760         1.639001     -0.651547      0.008977
Ti       5.77999      1.93713     10.28762         0.264894     -1.800475      2.088736
Ti       5.80615     13.66003     10.63218        -1.502414      0.200695     -0.494533
Ti       5.72445      5.89520      1.98934         0.738630      0.374894      0.851622
Ti       5.77223      5.76459     14.53001         0.641539     -1.016281      0.620419
Ti       5.88796      5.79727      6.11881         0.170458      1.667875      3.143225
Ti       5.80155      5.79096     10.43826         1.567230      0.819464      0.584879
Ti       5.79267      9.72353      2.28772         1.173954      1.549843     -0.170509
Ti       5.74735      9.60621     14.47682        -0.600834      1.631069      0.314219
Ti       5.80031      9.64591      6.20468         1.070329     -0.038241     -0.350488
Ti       5.76727      9.62038     10.55876        -0.699096      0.097039     -1.269027
Ti       9.83494      2.00245      2.32253        -0.721880     -1.262798      0.269588
Ti       9.95502      1.96340     14.61222        -0.949188     -1.808795      2.569455
Ti       9.71530     13.68559      2.11350         2.316688      0.247657     -1.564627
Ti       9.74536     13.76101     14.72221        -0.498223     -0.247478      0.851404
Ti       9.77913      2.00662      6.36628        -0.850529     -1.775461     -2.015106
Ti       9.56379     13.53524      6.18218         2.331072      0.174320     -0.161900
Ti       9.80579      1.83577     10.70805        -2.965741      0.466926     -0.749458
Ti       9.70005     13.48163     10.29586        -0.420014      1.054249      0.587751
Ti       9.60872      5.73691      1.98538         2.450910      1.209992      2.367122
Ti       9.71944      5.81796     14.56356         1.750460      0.053157      0.465380
Ti       9.92678      5.65668      6.12970        -0.738597      1.334454     -0.514234
Ti       9.72287      5.78979     10.60581        -0.190005      1.048857     -0.819899
Ti       9.70216      9.76401      2.18644        -0.421554     -0.278447      0.761674
Ti       9.72439      9.52251     14.45621         0.955116      3.471809      1.275620
Ti       9.72029      9.45917      6.11977        -0.981781      1.880366      0.300208
Ti       9.54852      9.63243     10.54234         0.711318     -0.795732     -1.032702
O       1.85414      1.69787      0.15314         0.274853     -0.570548      1.347294
O       1.99531      2.15573     12.87436         0.123442     -0.367809      0.059244
O       1.60508     13.34321     16.41263         2.122242      1.651712      2.306400
O       1.78912     13.67269     12.54899         0.480843     -0.184197      0.014273
O      13.50077      1.79457     16.52660         0.480057      1.759956      3.190040
O      13.69260      2.08822     12.67528        -0.106702     -0.329160     -1.020346
O      13.84456     13.72095      0.32437        -0.446984     -0.762420     -1.618736
O      13.56526     13.27570     12.55005        -0.403713      0.629621     -0.136290
O       2.13986      1.84491      4.25327        -0.316548      0.512986      2.214691
O       2.02226     13.21879      4.18144        -0.351538      1.102718      0.329669
O      13.47216      1.88830      4.29113         1.481511     -0.166176     -0.578389
O      13.68088     13.79631      4.52597        -0.404270     -0.033266     -0.196747
O       2.07608      2.01812      8.42886        -0.250132     -0.505785     -2.511094
O       1.89284     13.95974      8.40795         0.040576     -0.321889      0.368728
O      13.64224      2.15537      8.46462        -0.310454     -0.391540     -0.853122
O      13.77818     14.00563      8.39858        -0.259790     -0.746898     -0.637279
O       1.68960      5.77355      0.24162         0.912723      0.972493     -0.676083
O       2.03037      6.06696     12.47229        -0.884413     -1.818641     -1.593606
O      13.87344      6.21200     16.61724         0.109839     -0.509683      3.269900
O      13.78165      5.67729     12.53880         0.016950      1.075254     -0.699072
O       1.91498      5.91457      4.14547         0.050027     -0.684628      0.082419
O      13.91081      5.76109      4.23296         0.497792      0.728365     -0.780987
O       2.10878      5.94989      8.29376        -0.291253     -0.259949      3.096869
O      13.76595      5.72243      8.10235        -0.721343      0.211196      2.256856
O       1.95388      9.66189      0.05739        -0.122573      0.108468      0.412018
O       1.94614      9.47167     12.62378        -0.578888      0.670739      0.925980
O      13.39058      9.73388      0.13098         0.600857     -0.584403      0.106083
O      13.42685      9.64257     12.51493         1.153774      1.272801      0.268017
O       1.86794     10.10887      4.34475         0.043272     -0.651549     -1.990075
O      13.77777      9.81321      4.20412        -0.166013     -0.622933     -0.309853
O       2.02693      9.56764      8.35814         0.095523      0.303786     -1.380649
O      13.81223      9.50814      8.23570        -0.306494      0.033154     -0.155934
O       5.73966      1.83362      0.27548         0.017022     -0.059575      0.365493
O       5.91659      2.05761     12.71209        -0.274979     -0.535686      1.108216
O       5.53457     13.41697      0.13452         1.155218      0.298859     -0.577882
O       5.70908     13.54804     12.47170         0.164908      0.061446      0.528015
O       5.91390      1.76508      4.47320        -0.420211      0.541578      0.668612
O       5.73088     13.48511      4.21495         0.115832      0.878376      0.384154
O       5.94242      1.80480      8.50045        -0.631131      0.338305     -1.531646
O       5.75699     13.46679      8.52840         0.406841      0.576236     -1.841177
O       5.78926      6.04437      0.23430        -0.076074     -0.747572      0.377120
O       5.93909      5.50939     12.76879        -0.467009      0.255915     -0.455500
O       5.81268      5.73434      4.38995        -0.048204     -0.103103     -2.215730
O       6.02812      5.75696      8.69091        -0.530233      0.194803     -1.071579
O       6.25912      9.67971      0.11612        -2.284534     -1.242198      0.717728
O       5.45534      9.78509     12.69814         2.292938     -0.347666      0.239180
O       5.64729      9.63897      4.30892         0.203230      0.500597      0.525911
O       5.66296      9.41388      8.59865        -0.005635      0.570091      0.311140
O       9.87597      2.12837      0.05086        -0.505571      0.554543      0.620294
O       9.64840      1.71648     12.67592         0.566664      0.559239     -2.162270
O       9.95570     13.62600      0.12529        -1.279966      0.048035      0.931951
O       9.75597     13.83450     12.74524        -0.988785     -0.569340     -1.314301
O       9.68341      1.77564      4.33163        -0.424423      0.297413     -0.290959
O       9.99509     13.58540      4.37620        -0.573086      0.434289      1.201952
O       9.90030      2.03395      8.32951         0.439146      0.154188      0.840287
O       9.54393     13.49732      8.56255         0.221266     -0.472651     -0.505912
O       9.86266      5.72124      0.27553        -0.514157     -0.447098     -1.691301
O      10.04584      6.03785     12.80727        -0.613656     -0.470724     -1.702331
O       9.87736      5.77136      4.36216        -0.590477      0.344946      1.165782
O       9.52169      5.74321      8.75317         1.005874     -0.457005     -0.655850
O       9.58925      9.77222      0.41576        -0.071208      0.049594     -0.707806
O       9.79032      9.36927     12.72011        -0.074497      0.425002     -2.278426
O       9.81694      9.55184      4.33198         0.263067     -0.376249     -0.323141
O       9.86117      9.56229      8.77848        -0.320037      0.280707     -1.655959
O       3.92408      1.67958      2.45976        -0.521750      0.262499     -0.514809
O       4.00632      1.55141     14.90818        -1.920225      1.137550     -0.679606
O       3.92873     13.77627      2.01269        -0.809905     -0.629648      0.810613
O       3.73365     13.76495     14.61788        -0.229933     -0.615376      0.221563
O       0.04732      2.09126      2.31656        -1.756561     -0.075426      0.003361
O      15.46501      2.01199     14.82162         1.864432      0.081700     -0.493042
O       0.04498     13.39002      2.26774         1.195325     -0.651305      0.028441
O      15.31290     13.55080     14.59436         1.269502      0.054299     -0.209799
O       4.02573      1.92258      6.66019        -1.094135      0.518446     -0.642341
O       3.89904     13.38923      6.35533        -0.643895      0.081117     -0.189007
O       0.08914      1.73947      6.35390         1.142786      0.631115     -0.399491
O       0.09597     13.90643      6.32734         0.604729      0.028592     -0.181143
O       3.82191      1.90720     10.51235         1.792087     -0.233974      0.105952
O       3.88081     13.89973     10.51105        -0.907356     -0.615799      0.113156
O       0.21330      1.92689     10.72289        -2.833334      0.833340      0.318914
O      15.52169     13.54674     10.86276         0.717291     -0.031328     -1.334900
O       3.83121      5.69884      2.20679        -0.344001      1.013342      0.052545
O       3.89396      5.71433     14.59396        -1.101019     -0.288027      0.868896
O      15.58930      5.68388      2.38335         3.445456      0.012599     -0.856592
O       0.04596      5.66867     14.60541         1.654898      0.340402     -0.050741
O       3.92891      6.09808      6.19202        -0.645668     -0.750511      0.250365
O       0.02876      5.86341      6.50424         1.756455      0.000475     -0.526242
O       3.99310      5.82136     10.86426        -2.183334     -0.651128     -1.027636
O       0.01486      5.95258     10.39906         1.262782     -0.449486     -0.219780
O       4.01661      9.59237      1.88466        -2.313323     -0.340185     -0.238002
O       3.77192      9.61552     14.58966         0.188819     -0.717995      1.733183
O      15.57301     10.20783      1.86437         2.148752     -0.904012      1.174452
O      15.57128      9.78963     14.76208         0.847010     -0.230081      0.079603
O       3.83016      9.82100      6.14694         0.841885     -0.333019      0.636774
O      15.56699      9.91091      6.36539        -0.099040     -0.669343     -0.810074
O       3.91060      9.64599     10.81850        -1.350209     -0.693189     -0.903533
O       0.08200      9.94943     10.62027        -1.682848     -0.016317     -0.052472
O       7.80586      2.02841      2.00808         0.366828     -0.263288      0.592263
O       7.66559      1.90322     14.98090         0.995475      0.090715     -0.141534
O       7.96582     13.96393      2.33470        -2.269540     -1.306792      0.101837
O       7.61792     13.66411     14.47177         0.596550     -0.459555      0.040634
O       7.83233      1.56026      6.56941        -1.438230      1.531010     -0.874100
O       7.81949     13.73436      6.13324        -1.163660     -0.223802      0.656115
O       7.93181      2.02660     10.33278         0.128770     -0.530986      0.529069
O       7.74197     13.51120     10.54567         0.138952      0.214277      0.232371
O       7.82389      5.67185      2.47905        -1.627152      0.400829     -0.932003
O       7.90952      5.93190     14.36843        -0.983732     -0.637470      1.191764
O       7.78095      5.91249      6.29215         0.529321     -0.220444     -0.165007
O       7.77415      5.86474     10.74597         1.331404     -0.689334      0.734442
O       7.65129      9.82399      2.43724         2.940095     -0.905948      0.078073
O       7.77907      9.35291     14.65741        -0.924381      1.827729     -0.884764
O       7.89918      9.40661      6.32057        -0.214460      0.117381      0.244073
O       7.71466      9.51817     10.51786        -0.429674      0.234772      0.573581
O      11.72954      1.78165      2.36439         1.801065      0.788101     -1.083659
O      11.69484      2.21710     14.79066         1.388963     -0.400603     -1.375686
O      11.76589     13.75919      2.21855         1.069749      0.794355      0.446155
O      11.46483     13.56656     14.65265         3.521419     -0.198888     -0.153462
O      11.63824      2.15602      6.19603         1.440447     -0.397901      1.122279
O      11.56498     13.57600      6.65542         0.372752      0.268892     -0.185775
O      11.80528      1.88630     10.68866        -3.032040     -0.287367      0.053298
O      11.83159     13.44284     10.52719        -2.893257      0.710941      0.232884
O      11.91190      6.01462      2.49192         0.406975      0.231497     -0.716433
O      11.73288      6.06512     14.80843         0.382804     -0.435061      0.082836
O      11.94765      5.62226      6.01239        -2.938594     -0.280770      1.312337
O      11.83209      5.86586     10.54364        -0.039644     -0.583294     -0.089987
O      11.66277      9.37588      2.22247         0.814377      1.021727      0.394039
O      11.70454      9.56613     14.68235        -1.721013     -0.281840      0.143514
O      11.74677      9.61478      6.49070         0.065596     -0.501795     -0.411687
O      11.70552     10.11837     10.47262         0.725096     -1.077615      0.478161
O       2.02450      3.69539      2.13830         0.474932      1.889216      0.173099
O       1.86495      3.64777     15.23193         1.033815      2.666569     -0.924916
O       1.85169     15.38105      2.36433        -0.409151     -0.113631     -0.483694
O       1.75608     15.55625     14.66392        -0.249669     -0.006664      0.084347
O      13.59566      4.07938      2.00185         0.186177     -1.667020     -0.097681
O      13.63201      4.11287     14.61898        -0.511590     -1.762627      0.631044
O      14.00102      0.03609      1.92562        -0.968735      1.515438      1.298603
O      13.49299      0.02724     14.58128        -0.231085     -2.018829     -0.860934
O       1.87726      4.00004      6.24215         0.769053     -1.455282      0.247669
O       2.31471      0.03630      6.25960        -0.514995     -0.217110      0.133231
O      13.90598      3.86824      6.12781         0.599970     -0.748088      0.487397
O      13.73686      0.10018      6.36189        -0.984622     -0.606586      0.411388
O       2.14496      3.81341     10.34645        -0.585214      3.696827      0.734422
O       1.84266      0.09596     10.62654         0.205568     -2.176296      0.212231
O      13.70372      3.76037     10.62345         0.297868      1.358913     -0.544763
O      13.92433     15.58914     10.47970        -1.059986      0.820472      0.760506
O       1.67762      7.98617      2.29479         0.726029     -1.981059     -0.301632
O       1.90849      7.55112     14.43666        -0.115451      1.607566      2.052917
O      14.12386      7.98482      2.09422         0.027669     -2.524190      0.146828
O      13.84525      7.88962     14.55986         0.006854     -1.522952      0.236127
O       1.67280      7.78001      5.99109         1.067570      0.351305      0.885695
O      13.55768      7.70851      6.14292         0.783024     -0.957273     -0.259705
O       1.91029      7.94658     10.37753        -0.039820     -2.979083      0.000153
O      13.59254      7.90370     10.39015         0.749929     -1.182745      0.564909
O       2.51234     11.52977      1.99169        -0.658514      3.610429      0.059567
O       1.90435     11.65415     14.44522        -0.082543     -0.830187      0.516686
O      13.43648     11.68843      2.10613        -0.250860     -0.661951      0.286816
O      13.44138     11.54880     14.82279         0.298304      3.429353     -0.492828
O       1.80683     11.76120      6.67853         0.314550      0.425653     -1.017530
O      13.56187     11.75464      6.43766         0.411038      0.590472      0.190562
O       2.23342     11.70887     10.39381        -0.967831      0.705310      0.648318
O      13.71363     11.70506      9.90599         0.471501     -0.192182      1.378549
O       5.66804      3.77924      2.35711         0.104944      1.525830     -0.094733
O       5.94685      3.88009     14.93551        -0.591990      0.103517      0.167503
O       5.86281     15.56105      2.26657         0.706203      0.259052      0.333712
O       5.88820     15.33254     14.85522        -0.179313      2.861562     -0.243857
O       5.86185      3.89088      6.48070        -0.116637     -0.947587     -0.198016
O       5.70208     15.40386      6.36053        -0.165491      1.152515      0.691487
O       5.83393      3.71310     10.48568        -0.312267      2.102499      0.393067
O       5.77105      0.01950     10.53040         0.896001     -0.516896      0.547805
O       5.75801      7.85103      2.53636         0.520738     -3.406943     -0.866991
O       5.88843      7.73326     14.72355        -0.810950     -1.008190     -0.511530
O       5.91492      7.88753      6.39435        -0.775324     -2.068050     -0.075628
O       5.71150      7.63150     10.88287         0.501590      0.848850     -0.159135
O       5.95680     11.68147      2.42931        -0.662389      0.261022     -0.723883
O       5.66473     11.57956     14.82861         0.616641     -0.636353     -0.489165
O       6.13860     11.58866      6.34961        -0.354993      0.597090      0.398376
O       5.46913     11.52858     10.24473         1.965508      1.112141      1.416421
O       9.95446      3.92070      2.60285        -0.360655     -0.004511     -1.281089
O       9.79597      3.84358     14.35196        -0.957860      1.653546      0.365643
O       9.83283      0.05598      2.23230        -0.132252      0.435262      0.116058
O       9.74080      0.10238     14.67704        -0.362537     -0.877147      0.514275
O       9.49757      3.80074      6.33948         0.298006      2.078967      0.312000
O       9.89299     15.58395      6.61626        -0.732323     -0.949668     -0.695063
O       9.79509      3.81592     10.54730         0.548595      0.104980      0.934625
O       9.67405     15.54528     10.40067         1.270508      0.013390      0.360229
O       9.79608      7.70832      2.42077        -1.302655     -0.391552     -0.285697
O       9.60591      7.80789     14.89863         1.397391     -2.294797      0.438653
O       9.99743      7.60024      6.76702        -0.645022     -0.997260     -1.312577
O       9.92296      7.75232     10.51299         0.086646     -1.072062      0.997445
O       9.93051     11.81748      2.52373        -0.289026     -2.160779     -0.753157
O       9.32925     11.58204     14.66082         0.879850     -0.490237     -0.292893
O       9.78364     11.36146      6.30716         0.006967      2.083185      0.198692
O       9.43619     11.55405     10.84831         1.128006      1.487810     -0.486731
