  # total energy = -7881.92144501 
CRSYTAL
PRIMVEC
    15.464    0.0000000000000000    0.0000000000000000
     0.0000000000000000   15.464    0.0000000000000000
     0.0000000000000000    0.0000000000000000   17.350608
PRESSURE
-1.3319 -1.03454 -3.1906 0.198018 0.047673 -0.026153
PRIMCOORD
320 1
Pb       3.86707      3.60756      4.32196        -0.446341      0.601527     -0.148656
Pb       3.86320      3.82647     17.17743        -0.126465     -0.053784      0.325153
Pb       3.87237     15.37651      4.29792         0.285838      0.075608      0.091697
Pb       3.86811     15.46150     17.29308        -0.285368     -0.112028     -0.146535
Pb      15.40857      3.85012      4.31325         0.075481     -0.067269     -0.007776
Pb      15.31506      3.75136      0.04946         0.569101      0.298168     -0.567081
Pb      15.40743     15.43603      4.21714         0.190171      0.079492      0.444441
Pb      15.31909     15.41718     17.28079         0.746586     -0.101260      0.155280
Pb       3.82403      3.82266      8.55680        -0.449856      0.104645     -0.090681
Pb       3.90662     15.43152      8.71753        -0.352979     -0.256309     -0.393406
Pb      15.39431      3.91446      8.48458         0.365464     -0.120679      0.379644
Pb       0.08317      0.12355      8.69996        -0.028250     -0.448494     -0.321491
Pb       3.76605      3.91242     12.98924         0.031171     -0.094454      0.019525
Pb       3.80771      0.01768     12.94197        -0.647851      0.015062     -0.291777
Pb      15.24615      3.83417     12.94952         0.547740     -0.142740      0.341710
Pb      15.38736     15.40917     12.95972         0.454828      0.158048     -0.225847
Pb       3.93992      7.58765      4.18640         0.233468      0.929450      0.554249
Pb       3.84027      7.69529      0.13197         0.322040      0.360412     -0.154874
Pb       0.04002      7.76077      4.24410         0.147350     -0.213212      0.391146
Pb       0.01379      7.76212      0.13771         0.060673      0.469478     -0.283722
Pb       3.74488      7.59556      8.66412         0.070587      0.397864     -0.205990
Pb      15.42704      7.84210      8.64104         0.147356     -0.439397     -0.403798
Pb       3.89876      7.76335     12.99568        -0.238689      0.060460     -0.338274
Pb      15.38054      7.65274     12.97615         0.401553      0.371438     -0.302606
Pb       4.03229     11.52095      4.39876        -0.395894     -0.159139     -0.320509
Pb       3.94295     11.61951     17.30310        -0.665959      0.254725      0.369905
Pb       0.02712     11.61242      4.34232        -0.016220      0.059154     -0.288164
Pb      15.46325     11.60412      0.03027         0.166254      0.044218     -0.232096
Pb       4.01895     11.49068      8.81794        -0.306493      0.461055     -0.686639
Pb       0.03332     11.66015      8.59425        -0.390995     -0.110503     -0.274490
Pb       3.81339     11.65320     12.97705         0.335536     -0.289054      0.079482
Pb      15.39517     11.33666     12.94102         0.197009      0.716763      0.599977
Pb       7.65973      3.77416      4.33760         0.569814     -0.200172     -0.541189
Pb       7.66760      3.83508     17.25947         0.216814     -0.011600      0.130616
Pb       7.78430     15.36784      4.32169        -0.216569      0.080227     -0.391902
Pb       7.65513     15.41995     17.24389        -0.339286      0.125156      0.729927
Pb       7.58037      3.82785      8.52777         0.931257      0.047316      1.012114
Pb       7.75770     15.39581      8.71129         0.037861     -0.121159     -0.995600
Pb       7.69061      3.94307     12.96265        -0.008368     -0.084323     -0.250665
Pb       7.66968      0.10201     12.97515         0.383829      0.143024     -0.557931
Pb       7.79975      7.69563      4.22214        -0.616076      0.135642      0.569094
Pb       7.78140      7.84153      0.04698         0.064915     -0.206677     -0.520492
Pb       7.54756      7.61489      8.58338         0.895509      1.103175      0.701642
Pb       7.81599      7.80982     13.03133        -0.228873     -0.068086      0.105794
Pb       7.78789     11.56637      4.41281        -0.267718      0.183322      0.016424
Pb       7.73717     11.61674     17.20380        -0.039391      0.203135      0.531440
Pb       7.88692     11.50462      8.66249         0.112752      0.013430     -0.536415
Pb       7.59753     11.56568     12.85912         0.240589     -0.140077      0.106046
Pb      11.40356      3.88266      4.42077         0.352129     -0.156134     -0.510940
Pb      11.51944      3.76657     17.32302        -0.345728      0.335001     -0.559295
Pb      11.62843      0.02245      4.33160        -0.408369     -0.140503     -0.039356
Pb      11.55150     15.29758     17.25652         0.045800      0.692081      0.327417
Pb      11.68673      3.85975      8.72185        -0.370749      0.100233     -0.434140
Pb      11.65106      0.00056      8.68487        -0.151552     -0.343951     -0.234110
Pb      11.52119      3.84883     12.89678        -0.528928     -0.184890      0.535771
Pb      11.47797      0.05172     12.95147        -0.021164     -0.434927     -0.278417
Pb      11.59124      7.68591      4.18133        -0.355153     -0.266453      0.832592
Pb      11.55290      7.63206      0.04496        -0.233410      0.172095     -0.682418
Pb      11.44225      7.74546      8.59537         0.419342     -0.140482      0.160596
Pb      11.58734      7.55409     13.01969        -0.058448      0.503693      0.217787
Pb      11.64509     11.58236      4.39208        -0.305724      0.417354     -0.002967
Pb      11.58199     11.61103     17.29495         0.415142      0.099522     -0.525578
Pb      11.74073     11.67654      8.64110        -0.451793      0.088398     -0.121748
Pb      11.58202     11.50294     12.84109        -0.198541      0.606644      0.398931
Ti       1.93950      1.88722      2.36952         0.250292      0.787367      0.331684
Ti       1.86096      1.92247     15.34205        -0.050755      0.697474     -1.095832
Ti       1.94312     13.56202      2.37564        -0.143103     -0.701910     -1.965922
Ti       1.87181     13.47314     15.28312        -0.094006      0.020508      1.010115
Ti      13.50841      1.94681      2.25508        -0.002282     -0.005821     -0.638792
Ti      13.42925      1.97817     15.26754         0.013336     -0.113598      0.203778
Ti      13.48753     13.54932      2.35063         0.157095     -0.787928      0.196745
Ti      13.48683     13.57145     15.27619         0.295263     -1.620493     -1.104307
Ti       1.96324      1.86843      6.65718        -0.280458     -0.226807     -1.593956
Ti       1.88389     13.47095      6.65104         0.448586      1.045312      0.070390
Ti      13.55091      1.89289      6.62408        -0.104681     -0.201025      0.069460
Ti      13.50065     13.55547      6.57892        -0.132217     -0.294009      0.624366
Ti       1.79232      2.02062     11.00788         0.785210     -1.107967      0.062222
Ti       1.87434     13.40917     11.04581         0.555386      0.966598      0.200874
Ti      13.42165      1.86471     10.95243         0.207046     -0.240124     -0.701976
Ti      13.50540     13.49069     10.99641        -1.061641     -0.015679     -0.501861
Ti       1.92848      5.80443      2.31812         0.091438     -0.954559      1.378536
Ti       1.97143      5.92499     15.33645        -0.591756     -1.980626      0.148248
Ti      13.51248      5.82435      2.31503        -0.051414     -0.742749      0.802286
Ti      13.58454      5.81417     15.35465        -0.792886     -0.561209     -0.770275
Ti       1.87325      5.81501      6.56415         0.308150     -0.593032      0.239272
Ti      13.51406      5.80204      6.63968        -0.166795     -0.165957     -0.103193
Ti       1.82886      5.79844     10.98331         0.679075      0.146074      0.068084
Ti      13.45179      5.72923     10.95674         0.224950      0.342392     -1.765249
Ti       1.95591      9.74282      2.43569         0.210259      0.121904     -1.241895
Ti       2.03666      9.64603     15.38858        -1.911381      1.135964     -0.907509
Ti      13.49738      9.71103      2.34196         0.765619     -0.167230     -0.329892
Ti      13.55159      9.61968     15.37249         0.136007      0.955600      0.071555
Ti       2.01567      9.68349      6.67877        -0.045600     -0.232304     -1.004437
Ti      13.57279      9.58471      6.64588        -0.116132      1.132326      0.905378
Ti       1.93487      9.64001     10.88980        -0.244170     -1.001504     -0.606075
Ti      13.48837      9.57007     10.88085        -0.159112      0.785370     -0.067391
Ti       5.86909      1.90641      2.30199         0.050988     -1.392819     -0.271114
Ti       5.76417      1.90117     15.24622        -0.500465      0.532462     -0.128465
Ti       5.78934     13.48510      2.35122         0.527731      0.825233     -0.397757
Ti       5.75113     13.46635     15.21835        -0.514898      0.246351     -1.601834
Ti       5.85654      1.97981      6.58389        -0.141597     -1.775063     -0.644888
Ti       5.73164     13.52480      6.67269         0.305981      0.414820     -0.414283
Ti       5.65256      1.96346     10.93163         0.611370      0.457729      0.574198
Ti       5.75981     13.59634     10.95974        -0.588023     -0.908267     -0.483421
Ti       5.85823      5.67545      2.31749        -0.110339      0.690990     -0.509622
Ti       5.83836      5.87500     15.42090         0.248209     -0.046916     -1.042962
Ti       5.76954      5.84192      6.64030        -0.501486      0.694499     -1.252025
Ti       5.73770      5.87227     10.99066         0.374061     -0.679998     -0.727336
Ti       5.85536      9.74285      2.27528        -0.405710     -0.630707      0.781884
Ti       5.81673      9.69890     15.37839         0.373816     -1.101398     -1.568492
Ti       5.75220      9.69153      6.68149         0.859877     -0.265313     -1.122729
Ti       5.77712      9.64476     10.88519         0.037087      0.582685      0.430122
Ti       9.75878      1.88237      2.23710        -1.818231      0.138437      0.321429
Ti       9.56689      1.82580     15.33263         0.957910      1.238406     -0.395160
Ti       9.62646     13.50129      2.25028        -0.266967      0.315263      1.390609
Ti       9.56816     13.57001     15.23048         0.510425     -0.505601     -1.457527
Ti       9.75165      1.99728      6.70112        -0.328959     -1.383181     -0.400493
Ti       9.67776     13.58901      6.68490         0.201193     -0.554618      0.235534
Ti       9.57892      2.01859     10.89774        -0.011260     -0.399487      0.367797
Ti       9.56503     13.66678     10.99868         2.062986     -0.461364     -0.449367
Ti       9.64000      5.76516      2.21315        -0.463433     -0.377964     -0.220103
Ti       9.64692      5.75089     15.35976         0.140071      0.454777     -0.395044
Ti       9.60052      5.78076      6.67848         1.181993      0.551309     -0.682585
Ti       9.58645      5.91258     11.01592         0.238235     -1.331623     -0.719872
Ti       9.65461      9.72866      2.37561        -0.441560     -0.601219     -0.725455
Ti       9.71968      9.71400     15.34406        -0.733492     -0.824368     -0.435643
Ti       9.71568      9.64084      6.65265        -0.582585      0.622580      0.604916
Ti       9.66547      9.70113     10.94739        -0.169051     -0.065119     -1.301833
O       1.94479      1.93662      0.61444        -0.009249     -0.094441     -0.444975
O       1.84266      1.94427     13.56068         0.238873      0.052207      0.431625
O       1.89521     13.59643      0.54766         0.349157      0.023122      0.775985
O       2.01207     13.45056     13.55987        -0.531737      0.113436     -0.962637
O      13.57111      1.82265      0.43206        -0.218085      0.513595      0.932758
O      13.42355      2.00100     13.46934         0.209678     -0.009447      0.819449
O      13.42835     13.46294      0.60209         0.037619      0.437740     -0.791205
O      13.37443     13.38281     13.50334         0.330739      0.552285      0.557174
O       1.97062      1.92615      4.79582        -0.012203     -0.348001      1.351533
O       1.89859     13.61523      4.90418         0.058395     -0.233000     -0.501542
O      13.51154      1.98306      4.86871        -0.186967     -0.315441     -0.201188
O      13.48908     13.40495      4.81190         0.014659      0.214469     -0.671855
O       1.80398      2.02573      9.24318         0.006424     -0.103950     -0.584909
O       1.95237     13.46915      9.31011        -0.324272      0.055790     -0.430003
O      13.50666      1.82987      9.13035         0.032188      0.233666      1.225744
O      13.39922     13.52730      9.20054         0.626269      0.155114      1.164018
O       1.81418      5.91515      0.58864         0.584167     -0.042888     -0.636442
O       1.98509      5.89105     13.56125        -0.079166      0.181905      0.208835
O      13.38993      6.08097      0.58662         0.567308     -0.972960     -0.372955
O      13.50529      5.74391     13.49800         0.269682      0.090107      0.994649
O       1.81655      5.77974      4.83659         0.360790      0.006008     -0.551028
O      13.53132      5.83007      4.86517        -0.191408     -0.271748      0.212069
O       1.91594      5.65864      9.21753        -0.038431      0.352150      0.573307
O      13.59476      5.71561      9.11920        -0.488074      0.079485      1.806164
O       1.89440      9.64466      0.61722         0.481381     -0.247625      0.358408
O       1.87157      9.75056     13.58505         0.132360     -0.469791      0.935790
O      13.47027      9.45732      0.58591        -0.277976      0.568532      0.198906
O      13.54027      9.77203     13.58950         0.247282     -0.465475      0.332006
O       2.09118      9.75250      4.85551        -0.482532     -0.324642      0.955860
O      13.71304      9.85745      4.93077        -0.484747     -0.625182     -0.787923
O       1.85268      9.49843      9.07294         0.083116      0.439144      0.795619
O      13.52482      9.60192      9.09157         0.237116     -0.199271      0.730391
O       5.79615      1.93568      0.50168        -0.092868     -0.178820      0.205000
O       5.58347      1.92404     13.48160         0.595286     -0.143003      0.205678
O       5.80974     13.37239      0.56954        -0.037084      0.296747     -0.782318
O       5.71387     13.28408     13.36496         0.369065      0.982331      1.986465
O       5.77026      1.99195      4.75394         0.429253     -0.237177      1.603198
O       5.76572     13.52361      4.84098        -0.090942     -0.063590      1.539773
O       5.72559      1.88545      9.17395         0.032138      0.419711     -0.130802
O       5.56766     13.69829      9.14494         0.749686     -0.690838      0.814720
O       5.99424      5.63233      0.51248        -0.801618      0.509551      1.183081
O       5.77234      5.95902     13.60428        -0.062630     -0.199223      0.586387
O       5.89344      5.98398      4.83352        -0.134806     -0.770953      1.434964
O       5.87684      5.85638      9.15844        -0.627159     -0.389628      1.218263
O       5.84094      9.78284      0.48809        -0.130092      0.096583      0.161192
O       5.76579      9.76262     13.52703         0.270720     -0.383378      1.253377
O       5.69978      9.73465      4.82818         0.055572     -0.106573      1.712565
O       5.80455      9.69096      9.11822         0.074679      0.015085      0.706116
O       9.47715      1.89229      0.48750         0.980638     -0.150398      0.378722
O       9.64413      1.83462     13.53463        -0.447744     -0.021275      0.895924
O       9.56895     13.55563      0.48534         0.165742     -0.216245      0.284393
O       9.65471     13.70072     13.39271        -0.417828     -0.193417      1.630192
O       9.79866      2.00628      4.89390        -0.099274      0.044790      0.251704
O       9.69799     13.51059      4.91930        -0.132796      0.106617     -0.102070
O       9.82520      2.05384      9.16185        -0.850122     -0.413057     -0.392028
O       9.73232     13.74363      9.22015        -0.495907     -0.250148      0.404197
O       9.70221      5.72756      0.40843        -0.353607      0.317875      1.147292
O       9.56512      5.74821     13.52750         0.203726     -0.038277      0.561786
O       9.65408      5.92758      4.85943         0.101429     -0.810230      1.558886
O       9.70135      5.78956      9.23883        -0.185400      0.419155      0.421437
O       9.71727      9.59807      0.57710        -0.222683      0.748435      0.554193
O       9.53294      9.73321     13.60242         0.344917     -0.139963     -0.320773
O       9.61424      9.71621      4.89801         0.279754     -0.232921     -0.227576
O       9.63436      9.45029      9.13727         0.283183      0.682584      1.205268
O       3.93290      1.72077      2.77151        -1.033796      0.549305     -0.475635
O       3.86269      1.97110     15.64056        -0.018712     -0.438188      0.501518
O       3.91539     13.50338      2.58211        -1.007995      0.629668      0.651173
O       3.82517     13.41694     15.52586         0.932748      0.479972      0.843647
O      15.31262      1.88738      2.69738         1.876235      0.475022      0.042827
O      15.43477      2.10977     15.67277        -0.587405     -0.257331      0.119863
O       0.01686     13.42712      2.67390        -0.314846      0.486748      0.361793
O      15.41568     13.46471     15.62810         0.100074      0.457096      0.187391
O       3.91148      1.75664      7.01657        -0.071594      1.069332     -0.125131
O       3.80371     13.56535      7.08822         0.880972      0.132368     -0.356806
O       0.01072      1.77419      7.01549        -0.362078      0.583558     -0.035491
O      15.37025     13.51960      6.99947         1.260740     -0.097940      0.317854
O       3.73455      1.94694     11.27078         0.815494      0.146231      0.404015
O       3.81041     13.50611     11.46715        -0.298191      0.120458     -0.420769
O      15.41831      1.97125     11.43192        -1.624082      0.073442     -0.122025
O       0.00652     13.49355     11.47587        -1.169374     -0.198497     -0.378553
O       3.99406      5.76008      2.78520        -0.528365      0.186042     -0.970218
O       3.88474      5.88376     15.85958        -0.322283      0.363287     -0.231427
O       0.04038      5.60316      2.76830        -0.374308      1.126467     -0.776604
O      15.43418      5.65549     15.81608        -0.456540      0.578058     -0.497944
O       3.87307      5.75782      7.02375         0.242052     -0.387257     -0.076322
O       0.03802      5.84793      7.00301        -0.910755     -0.559605      0.156927
O       3.83276      5.92150     11.33302         0.409785     -0.254582      0.068938
O      15.35496      5.75871     11.31414         0.423000      0.296440      0.348105
O       3.83548      9.64209      2.75347         1.122147      0.286227     -0.524245
O       3.86389      9.65254     15.72723         0.362263     -0.361708      0.202719
O      15.46107      9.63896      2.61822        -0.104987     -0.157366      0.663261
O      15.41756      9.75971     15.94347        -0.338546     -0.980600     -0.842063
O       3.89625      9.60366      7.22657        -0.547926      0.241880     -0.458009
O       0.09172      9.70460      6.98653        -0.483772     -0.285951      0.346472
O       3.80131      9.59575     11.16718         1.314057      0.206726      0.249053
O      15.44930      9.68263     11.37477        -1.019921     -0.913951     -0.500094
O       7.77680      1.83176      2.66256         0.008399      0.855396      0.415333
O       7.72150      1.92192     15.65938        -0.962244     -0.373277     -0.293817
O       7.68048     13.44945      2.84930         1.747405      0.537633     -0.486040
O       7.63994     13.55002     15.62402         0.345902     -0.343561     -0.180095
O       7.72507      1.95421      7.01323        -0.179712      0.008472     -0.014992
O       7.78792     13.41871      7.17257        -0.914770      0.340409     -0.200329
O       7.62412      1.90861     11.36396        -0.595318      0.364473     -0.131247
O       7.71682     13.54107     11.25546        -1.364319      0.054332      0.064559
O       7.79552      5.64432      2.80307        -1.100346      0.331891     -0.474849
O       7.70414      5.83190     15.77219         0.319754     -0.082166     -0.184267
O       7.73923      5.79579      7.11015        -0.271778     -0.054025     -0.612185
O       7.73162      5.75873     11.40948        -0.535794      0.425842     -0.108126
O       7.70475      9.65344      2.79373         0.511263      0.889854     -0.500875
O       7.75972      9.74461     15.79588        -0.130634     -0.494114     -0.172410
O       7.73512      9.66311      7.05290        -0.170784      0.069594     -0.195176
O       7.75236      9.70378     11.32602        -0.512728     -0.018985      0.060498
O      11.63563      1.85918      2.70306        -0.301717      0.139605     -0.244697
O      11.49180      1.84923     15.70886         0.857145     -0.226699      0.033101
O      11.52606     13.47401      2.71387         0.400215      0.010415     -0.229013
O      11.53951     13.56866     15.74043         0.054162      0.107081     -0.225050
O      11.59337      1.96457      7.04169         0.368052      0.097453      0.007707
O      11.61629     13.52231      7.03948        -0.268454     -0.023244      0.058943
O      11.50479      1.89798     11.31232         0.620325     -0.133938      0.103640
O      11.53551     13.70873     11.32136         0.306195     -0.686756      0.230616
O      11.45657      5.88710      2.62612         1.463511      0.023355      0.243784
O      11.53924      5.76493     15.72283         0.689577      0.145883      0.024523
O      11.63247      5.80288      7.10735        -0.769451     -0.358272     -0.466452
O      11.54404      5.71049     11.43534         0.357149      0.708338     -0.298103
O      11.59743      9.61431      2.81331        -0.028099      0.195876     -0.336629
O      11.56190      9.68208     15.70340         0.837467      0.324088      0.221082
O      11.65981      9.58028      6.92309        -0.207635      0.219003      0.058432
O      11.52806      9.65568     11.43235         0.995208     -0.703052     -0.444363
O       2.07993      3.83980      2.75248        -0.412297     -0.495812     -0.379203
O       2.00347      3.95870     15.67936         0.106911     -0.389105      0.238110
O       1.79389      0.01188      2.73096         0.588490     -0.282098      0.067050
O       1.80311      0.01805     15.67336         0.559634     -0.112747      0.155495
O      13.54849      3.87457      2.64880        -0.701116      0.050128     -0.386070
O      13.34319      3.85651     15.77420         0.565256     -0.192325     -0.041965
O      13.60710     15.40554      2.63061        -0.694588      0.404076      0.276765
O      13.61142      0.02905     15.67199        -0.576618     -0.010194     -0.352348
O       1.83559      3.77242      6.96425         0.715165      0.303101      0.267032
O       1.85516     15.44158      7.08757         0.293860     -0.080883      0.244774
O      13.50604      3.80829      6.96792         0.412121      0.670382      0.237354
O      13.38600     15.44263      6.92492         0.426164      0.231027      0.079004
O       1.88152      3.91909     11.46046         0.063085      0.471315     -0.006477
O       1.76353      0.05589     11.38857         0.484372     -0.550057      0.179323
O      13.35312      3.79592     11.29509         0.659756      0.595848     -0.021454
O      13.40794     15.43150     11.37518         1.117537      0.552416     -0.005313
O       1.99116      7.68301      2.75648        -0.405964      0.003973     -0.210392
O       1.74113      7.76572     15.69980         0.571735     -0.088648      0.318640
O      13.62072      7.64175      2.79561        -0.346281      1.026727      0.057064
O      13.44055      7.67070     15.61708         0.492414      0.649245      0.016715
O       1.97974      7.63833      6.97974         0.007356      1.158265      0.164174
O      13.56968      7.68949      7.02081         0.259323      0.647341     -0.240496
O       1.99132      7.78522     11.44483        -1.242598     -1.240154     -0.180686
O      13.48169      7.73398     11.36085        -0.027468     -0.839440      0.005216
O       1.99108     11.64537      2.67837        -0.212721     -0.502885      0.302079
O       1.92059     11.56067     15.74107        -0.017722      0.244806      0.220006
O      13.61783     11.57411      2.66817        -0.787553     -0.456301      0.050081
O      13.56958     11.65044     15.76971        -1.000030     -0.548848      0.285700
O       2.04035     11.60209      6.95993        -0.494216     -0.352904      0.477112
O      13.51331     11.66942      7.13540         0.219351     -1.176979     -0.281588
O       1.88296     11.45864     11.26304         0.164685      1.513149      0.300836
O      13.38877     11.50539     11.18054         0.340648      0.698414      0.463091
O       5.70233      3.77525      2.71355         0.771225      0.729977      0.017394
O       5.89049      3.87030     15.62081        -0.698987     -0.286849      0.021392
O       5.90166     15.43727      2.66454        -0.240073     -0.187244      0.171705
O       5.78532     15.40373     15.61584        -0.362898      0.130580     -0.088163
O       5.87360      3.88593      6.95121        -0.694246     -0.009043     -0.115157
O       5.94896     15.42539      6.95040        -0.412169      0.203886      0.076363
O       5.72656      3.93016     11.37228        -0.176707     -0.146144     -0.157298
O       5.63987     15.43400     11.25772         0.306685      0.971982      0.600590
O       5.88356      7.82616      2.56858        -0.266117     -1.256527     -0.096397
O       5.83857      7.79200     15.83844        -0.141940     -0.088217      0.043532
O       5.73146      7.76673      7.15315         0.189466     -1.022874     -0.731081
O       5.92193      7.80599     11.32025        -0.537087     -0.837078      0.084510
O       5.89140     11.64765      2.78841        -0.669980     -1.450855     -0.126972
O       5.81499     11.53771     15.67233        -0.175168      1.387109      0.261965
O       5.75267     11.55161      7.06688        -0.168320      0.763440      0.081107
O       5.70584     11.63275     11.32087         0.253596     -0.758223     -0.649585
O       9.68188      3.84448      2.70704         0.326530     -0.287413     -0.168344
O       9.68750      3.84466     15.77684        -0.411373     -0.733989     -0.400303
O       9.67531     15.44596      2.75307         0.110329     -0.369588     -0.372123
O       9.53853     15.40681     15.82634         0.378685      0.217307     -0.590471
O       9.62546      3.81953      7.07784         0.087463      1.814471     -0.313976
O       9.68590     15.45895      7.02021        -0.286494      0.795406      0.173879
O       9.62831      3.83405     11.35669        -0.240783      0.724917      0.334866
O       9.46279      0.12058     11.38142         0.401010     -0.711426     -0.049986
O       9.46435      7.77805      2.64414         1.036340     -0.703791     -0.258053
O       9.66554      7.70033     15.62757        -0.266239      0.684954      0.311622
O       9.71311      7.72925      7.06871        -0.449031     -0.795434     -0.522528
O       9.71571      7.74953     11.53824        -0.424759     -0.262893     -0.501001
O       9.61881     11.60186      2.83629         0.319935     -0.123010     -0.810950
O       9.64212     11.71318     15.58835         0.111318     -0.512772      0.492809
O       9.75698     11.62524      7.14683        -0.181913     -1.063158     -0.144503
O       9.70030     11.58426     11.19878        -0.234204      0.520386      0.192286
