  # total energy = -7881.88200315 
CRSYTAL
PRIMVEC
    15.464    0.0000000000000000    0.0000000000000000
     0.0000000000000000   15.464    0.0000000000000000
     0.0000000000000000    0.0000000000000000   17.350608
PRESSURE
-0.485739 -0.57969 -0.788762 0.110076 0.02612 0.001789
PRIMCOORD
320 1
Pb       3.84150      3.89001      4.35028        -0.343325     -0.450157     -0.604457
Pb       3.87016      3.98178     17.29651        -0.475997     -0.880269      0.446045
Pb       3.72838     15.36278      4.30308         0.705354      0.209763     -0.419891
Pb       3.82036     15.38982     17.16018         0.311145      0.284402      0.314735
Pb       0.17662      3.84784      4.36181        -0.623589      0.085612      0.157244
Pb      15.38867      3.73452      0.02090         0.792800     -0.013574      0.066087
Pb       0.14166      0.00556      4.29232        -0.613530     -0.429302     -0.277700
Pb      15.44124     15.32926     17.22967         0.127213      0.459734      0.367886
Pb       3.72727      3.90447      8.54072         0.208624      0.002373      0.560939
Pb       3.76011     15.36058      8.82552         0.648626      0.281761     -0.712974
Pb      15.41470      3.74904      8.52556         0.143031      1.090572      0.318168
Pb       0.03356      0.01202      8.60250        -0.109538     -0.384754      0.176052
Pb       3.66420      3.86646     12.93867         0.219483     -0.101383      0.245325
Pb       3.75658     15.29758     12.97513         0.227725      0.651142      0.536155
Pb      15.36806      3.84703     12.95640         0.951252      0.123683      0.354112
Pb      15.42172      0.06170     12.97161         0.418714     -0.007891     -0.051546
Pb       3.78431      7.71005      4.24780        -0.074593      0.021497     -0.227361
Pb       3.66818      7.57719      0.17291         0.377234      0.348007     -0.566905
Pb      15.42042      7.72908      4.23805         0.235881     -0.270960      0.007901
Pb      15.45162      7.71393      0.12748        -0.211069      0.036855     -0.536309
Pb       3.89194      7.76589      8.61748         0.114159     -0.482115      0.026935
Pb       0.15019      7.75376      8.48978        -0.933706     -0.600016      0.521089
Pb       3.86107      7.66225     13.04640        -0.868169      0.090991      0.029639
Pb      15.45016      7.83167     13.01300         0.448360     -0.325140      0.236126
Pb       3.86374     11.61437      4.34368         0.183521     -0.438110     -0.310040
Pb       3.82336     11.65293     17.29769        -0.185888      0.054509     -0.194939
Pb       0.06916     11.55116      4.30704        -0.482866     -0.001305     -0.295054
Pb       0.11389     11.61643     17.29290        -0.670406     -0.358670      0.070171
Pb       3.91391     11.62176      8.57973         0.309288     -0.381726      0.112032
Pb      15.42225     11.56467      8.58562        -0.311417      0.049707     -0.103494
Pb       3.76122     11.60437     13.01177         0.526120      0.081960      0.377060
Pb      15.41002     11.65304     12.85961         0.329834     -0.141767      0.532670
Pb       7.59807      3.82102      4.31982         0.172161     -0.679034     -0.186866
Pb       7.68485      3.96410     17.25525         0.424892     -0.500628      0.205668
Pb       7.82486     15.34783      4.33801        -0.445033      0.689687     -0.520244
Pb       7.62415     15.33554     17.21457         0.057879      0.844896      0.290441
Pb       7.60206      3.87847      8.67934         0.404409     -0.050057      0.261629
Pb       7.66213      0.11649      8.66492         0.224364     -0.652347      0.597034
Pb       7.57825      3.83731     12.91014         0.740833      0.192054      0.297740
Pb       7.76063      0.08714     12.94165        -0.174947     -0.478958      0.606595
Pb       7.70039      7.72678      4.25335         0.372129      0.079931      0.614238
Pb       7.76979      7.73335      0.01193        -0.125621     -0.001868     -0.479966
Pb       7.68000      7.68035      8.62352         0.065674     -0.045812      0.011323
Pb       7.62655      7.77327     13.02623         0.401463     -0.396872     -0.041498
Pb       7.80639     11.56896      4.32293        -0.179619     -0.075674      0.300658
Pb       7.75364     11.54450     17.24845        -0.063067     -0.163888     -0.341441
Pb       7.70637     11.57814      8.65496        -0.176406     -0.083204      0.226978
Pb       7.68252     11.57320     12.93968        -0.210239     -0.380334      0.514200
Pb      11.43908      3.88193      4.37581         0.298811     -0.160399     -0.244645
Pb      11.54678      3.85914      0.06112        -0.165936      0.036658     -0.366858
Pb      11.65944     15.45296      4.22288        -0.333374     -0.491062      0.424889
Pb      11.51695      0.00534     17.33579         0.262315     -0.282434     -0.633083
Pb      11.80215      3.89622      8.61453        -0.876401      0.131666      0.397658
Pb      11.61273     15.43226      8.71069        -0.133657     -0.207378     -0.205630
Pb      11.58055      3.81562     13.01627        -0.537251      0.098665     -0.301228
Pb      11.60876     15.44654     12.96595         0.082862     -0.152136     -0.307713
Pb      11.71728      7.69767      4.30478        -0.460902     -0.321443     -0.516406
Pb      11.72485      7.74728     17.24914        -0.820485     -0.241958      0.828511
Pb      11.59413      7.76667      8.66385         0.060044     -0.762960     -0.765491
Pb      11.58239      7.74094     13.09150        -0.195153     -0.375122      0.108295
Pb      11.66728     11.40544      4.34607        -0.057107      0.841349      0.018815
Pb      11.51689     11.52274     17.20881         0.580590      0.832678      0.113532
Pb      11.57922     11.53772      8.54415         0.327292      0.714703      0.193772
Pb      11.62866     11.55550     12.88888        -0.097429      0.572141      0.344869
Ti       1.83304      1.87306      2.23257         1.679091      0.715958     -1.031315
Ti       1.98626      1.90441     15.33962        -0.728241      0.093301      0.951582
Ti       1.89872     13.47087      2.30100         0.417416      0.039184     -1.266025
Ti       1.87301     13.47816     15.28369         0.756688      0.704517      0.260383
Ti      13.48010      1.90688      2.45737         0.732085      0.475614     -0.681656
Ti      13.58633      1.89160     15.40259        -0.299337     -0.717422     -0.438829
Ti      13.54299     13.52314      2.26840        -0.385742     -0.747428      0.557651
Ti      13.53562     13.47779     15.22028        -0.534716      0.229077      0.717801
Ti       1.90719      1.90751      6.63727         0.737508     -0.322676     -0.890221
Ti       1.94301     13.44321      6.73212        -0.010499      0.368414      0.295169
Ti      13.46792      1.85899      6.60565        -0.237202      0.898210      0.366381
Ti      13.56365     13.55093      6.68861        -0.340680     -0.500924      0.080498
Ti       2.06946      1.93132     10.94670        -1.342670     -0.460415      0.246029
Ti       2.01822     13.50239     10.88370        -1.401374      1.086293      1.153827
Ti      13.58612      2.00252     10.99698        -0.072936     -0.749630     -0.542065
Ti      13.60815     13.54356     10.97899        -0.979484      0.813444     -1.411886
Ti       1.85792      5.71398      2.29765         0.232890      0.464675      0.790059
Ti       1.83929      5.78289     15.41347        -0.469742     -0.423955     -1.324559
Ti      13.57042      5.66511      2.27815        -0.236162      0.355567      0.909155
Ti      13.54513      5.69588     15.39553         0.000244      1.594054     -0.009141
Ti       1.96439      5.79166      6.53609        -1.157437      0.436182     -0.432941
Ti      13.54662      5.77605      6.56703         0.443076      0.540256     -0.045503
Ti       1.84220      5.82244     10.96913         0.441052      0.322697     -0.408064
Ti      13.49607      5.87808     11.02788         0.782367     -0.392369     -1.689328
Ti       1.88491      9.62861      2.27246         0.400120     -0.063028      0.150496
Ti       1.85273      9.63792     15.36735        -0.431443     -0.239386     -0.088958
Ti      13.49680      9.66699      2.23688         0.976615      0.214054     -1.048054
Ti      13.52133      9.65248     15.30036         0.665892      0.296343      0.398271
Ti       1.91277      9.62407      6.58301        -0.009473      1.042551     -0.126416
Ti      13.46606      9.58190      6.65519         0.666030      0.816286     -0.115472
Ti       1.97946      9.69692     11.02175        -0.455539     -0.898255      0.858917
Ti      13.49655      9.65327     10.97468         0.515280      0.121792     -0.688022
Ti       5.75249      1.86900      2.32155        -0.278043     -0.974687     -1.076371
Ti       5.81852      2.01563     15.32095        -0.090847     -1.259993     -0.896839
Ti       5.79964     13.45404      2.32891        -0.278778      0.949907      0.337844
Ti       5.82196     13.43736     15.28544        -1.086969      1.169881     -0.238295
Ti       5.74247      1.80704      6.75241        -0.391507      0.635571     -0.577582
Ti       5.87798     13.46040      6.71531        -0.781097      0.029653     -0.435320
Ti       5.82103      1.90403     11.04112        -0.836982     -0.133541     -0.021523
Ti       5.82097     13.51933     11.07907        -0.017224     -0.448200     -1.434607
Ti       5.79433      5.77767      2.34718        -1.541856     -0.073096      0.185589
Ti       5.72704      5.83146     15.24782         0.305703      0.174694      1.540348
Ti       5.76562      5.66045      6.60416        -0.356200      0.123089     -1.083609
Ti       5.72049      5.78718     11.04250         0.497327     -0.540832     -0.484873
Ti       5.83944      9.63804      2.31541        -0.906937     -0.271900      0.269670
Ti       5.60566      9.61855     15.38450         1.049559     -0.608802     -0.296775
Ti       5.77731      9.55381      6.56287         0.435000      0.870890     -0.000870
Ti       5.69071      9.58072     11.05053         0.746159      0.806854     -0.559534
Ti       9.63952      1.93213      2.25612        -1.041380     -0.531598      1.447924
Ti       9.65335      1.96270     15.31519         0.185885     -0.203473      0.259520
Ti       9.70074     13.47057      2.38899         0.931060      0.579897     -0.450171
Ti       9.64226     13.48960     15.19519         0.889691      0.462175      1.280103
Ti       9.62000      1.92488      6.81282         0.171403     -0.037423     -0.499939
Ti       9.65009     13.52482      6.69334         0.285720     -0.051203      1.027739
Ti       9.69772      1.86514     11.00166        -0.316812      0.997455      0.215314
Ti       9.58966     13.36963     10.98000         0.884712      0.940657      0.477352
Ti       9.64102      5.77730      2.41248         0.555408      0.321255     -1.448078
Ti       9.64569      5.81913     15.38307         0.334441      0.354365     -0.448230
Ti       9.62541      5.69828      6.68954         0.643575      0.710556     -0.046558
Ti       9.73692      5.79106     10.91520        -1.830185     -0.736551     -0.532055
Ti       9.69500      9.67477      2.26946         0.027712     -0.912504      0.548258
Ti       9.62668      9.65597     15.27501        -0.245486     -0.709696      0.966125
Ti       9.58184      9.62467      6.68886         0.030048      0.195460     -0.903399
Ti       9.64099      9.54234     10.99102        -0.643236      0.494292      2.316806
O       1.87133      1.97387      0.44617        -0.044192     -0.423857      0.591313
O       1.80432      1.91985     13.62957         0.384648      0.182423     -1.554809
O       1.94953     13.47261      0.51290        -0.024716     -0.214818      0.237114
O       1.92283     13.57050     13.54994        -0.032192     -0.310731     -1.221745
O      13.43739      2.05735      0.69070        -0.079105     -0.048869     -0.229025
O      13.56546      1.79638     13.62692        -0.247482      0.447940     -0.136945
O      13.47914     13.41518      0.54069         0.122827      0.055010     -0.661103
O      13.67109     13.66377     13.47296        -0.380501     -0.040968     -0.594533
O       1.93584      2.03875      4.83481        -0.172847     -0.747053      0.821647
O       1.97884     13.45270      4.98330        -0.293558     -0.008960     -1.663725
O      13.49381      1.94856      4.86721         0.066860     -0.737823     -0.216848
O      13.61823     13.62091      4.94803         0.029712      0.060199     -0.196490
O       2.12703      1.92676      9.17117        -0.683739     -0.238466     -0.419661
O       1.89564     13.62613      9.13361         0.437430     -0.217476     -0.397108
O      13.56288      2.16146      9.19882         0.128874     -0.615085      0.756183
O      13.47959     13.41444      9.16423         0.240905      0.554591      0.819640
O       1.77405      5.69610      0.52827         0.825199      0.373352     -0.802507
O       1.77583      5.72307     13.59430         0.478385      0.086808      1.057939
O      13.53435      5.57751      0.52471         0.032453     -0.157294     -0.443763
O      13.42086      5.96550     13.63823         0.236033     -0.668222      0.061740
O       1.94500      5.75105      4.74249        -0.336812      0.240539      0.710345
O      13.65922      5.89119      4.78197        -0.734966     -0.018489      0.728105
O       1.95607      5.79450      9.17248        -0.216282      0.571426      0.512883
O      13.56017      5.84759      9.20561        -0.354427     -0.178018      1.406996
O       1.83041      9.66239      0.49747         0.303891      0.223857      0.135728
O       1.74805      9.54094     13.62191         0.650462      0.465221     -0.463791
O      13.66212      9.84012      0.45875        -0.630138     -0.197540      1.071100
O      13.48455      9.57205     13.52732         0.189892     -0.045693     -0.380363
O       1.81415      9.69605      4.86014        -0.039502      0.077736     -0.939692
O      13.42699      9.58855      4.87042         0.147865     -0.167593     -0.133658
O       2.06928      9.60565      9.29035        -0.207598      0.039483     -0.959873
O      13.51084      9.78851      9.17199        -0.073773     -0.551594      1.093745
O       5.82167      1.64574      0.55011        -0.087819      0.636248      0.763987
O       5.77181      2.06138     13.52153         0.510083     -0.128534      0.893307
O       5.81828     13.58193      0.56932        -0.112042     -0.337736     -0.476193
O       5.61195     13.55875     13.55501         0.661243     -0.211581     -0.397790
O       5.83298      1.85593      4.99652        -0.096663     -0.064898     -0.182929
O       5.88500     13.42793      4.91282        -0.244865      0.012604      0.690175
O       5.75083      1.98878      9.26330         0.116740     -0.285261      0.149782
O       5.76916     13.46939      9.26305        -0.025203      0.015642      0.873342
O       5.52588      5.94579      0.60700         0.639726     -0.624096      0.102915
O       5.80966      5.82939     13.51583        -0.413329     -0.264554     -0.870448
O       5.68483      5.51180      4.79318         0.386008      0.664439      0.985938
O       5.66803      5.82025      9.26417        -0.132364     -0.050929     -0.343112
O       5.79252      9.53342      0.54569         0.041857      0.383640      0.159482
O       5.68368      9.48659     13.62580         0.150383      0.216199      0.029468
O       5.94424      9.71150      4.81445        -0.158600     -0.239013      0.308936
O       5.69828      9.58607      9.24941        -0.190886     -0.183505      0.778342
O       9.62249      1.90901      0.53893         0.415700      0.120467     -0.733831
O       9.67967      2.02458     13.56177         0.078829      0.118354     -0.673343
O       9.93495     13.44388      0.65117        -0.809403     -0.173574     -0.212336
O       9.58000     13.31374     13.51187         0.245501      0.525525     -1.305921
O       9.55273      1.88577      5.04850        -0.010127      0.221354      0.146777
O       9.61025     13.40837      4.96832        -0.007673      0.769497     -1.243039
O       9.50334      1.87910      9.27247         0.238203     -0.056468     -0.317336
O       9.53464     13.26034      9.22664         0.454266      0.627069      0.444840
O       9.60750      5.79493      0.59409        -0.173186     -0.167507      1.149711
O       9.83086      6.02204     13.63075        -0.518299     -0.702834      0.208054
O       9.67698      5.72166      4.88684        -0.066206     -0.253353      0.513015
O       9.56118      5.84318      9.12154         0.497263      0.232121      0.706344
O       9.64178      9.64149      0.50521        -0.056410      0.460740      0.375663
O       9.67607      9.41212     13.55157        -0.086159      0.509242     -0.582508
O       9.67138      9.65929      4.93580        -0.092870     -0.090890     -0.239719
O       9.44004      9.73052      9.32733         0.481547     -0.354711     -2.140228
O       3.72453      2.14066      2.59038         1.055024     -0.952705      0.470121
O       3.88290      1.86044     15.54713         0.155573      0.305874      0.642281
O       3.82232     13.40474      2.65881         0.379975     -0.236644      0.533786
O       3.83661     13.43801     15.61569         0.861086      0.528882      0.782665
O       0.00431      1.74387      2.66844        -0.336012      0.306372      0.500278
O       0.02771      1.81426     15.66203        -1.114922      0.016848      0.690498
O       0.02440     13.64117      2.64030         0.240425     -0.444553      0.523046
O       0.00351     13.55680     15.69410        -0.748975     -0.517752      0.097003
O       3.77567      2.02781      7.06294         0.080043     -0.623527     -0.282328
O       3.81242     13.39820      7.08639         0.899154      0.610015      0.031582
O      15.43226      2.03250      6.94426         0.137429     -0.707619      0.268020
O       0.00251     13.58696      7.13450        -0.364118     -0.089890      0.025128
O       3.86252      1.82968     11.46282         0.327377      0.540257     -0.156330
O       3.88789     13.49734     11.33736        -0.537617      0.180329      0.027116
O       0.03996      1.87363     11.41859        -0.781866      0.260092     -0.511759
O       0.02396     13.67668     11.19688         0.025815     -0.562381      0.359973
O       3.70798      5.78100      2.81078         1.604309     -0.266274     -0.564157
O       3.75892      5.72460     15.77429         0.730340      0.500469     -0.332583
O       0.01481      5.96592      2.65218        -0.854090     -0.263850      0.145295
O      15.44615      5.88390     15.72065        -0.615033     -0.231321      0.293599
O       3.77542      5.89471      6.95589         1.234053     -0.287573      0.137811
O      15.43444      5.85446      6.94224        -0.072530     -0.050498      0.293843
O       3.70281      5.78104     11.50989         1.079583     -0.618413     -0.206987
O       0.00958      5.85224     11.40106        -0.716407     -0.251246     -0.014527
O       3.83454      9.73671      2.81506         0.289369     -0.383358     -0.550141
O       3.76864      9.65071     15.65314         0.852186      0.117380      0.514735
O      15.42039      9.54778      2.67949        -0.283575      0.169612      0.129244
O      15.43078      9.70699     15.70205        -0.180266      0.190674      0.172654
O       3.89087      9.87324      6.73168        -0.387072     -1.015952      0.829010
O      15.42453      9.72155      6.98636         0.089831     -0.344478      0.276571
O       3.85966      9.69915     11.56339        -0.363234      0.055982     -0.332519
O       0.10045      9.70347     11.50301        -1.316476      0.135096     -0.927103
O       7.71661      1.80031      2.67979        -0.116778      0.010390      0.347625
O       7.79057      1.95543     15.70740        -0.866974      0.255011      0.141416
O       7.73499     13.48933      2.64206         0.357465      0.112747      0.294713
O       7.72327     13.38257     15.64387         0.223981      0.448245      0.272660
O       7.65985      1.99919      7.18886        -0.354829     -0.313992     -0.135148
O       7.72384     13.51546      7.08381        -0.195097      0.470831     -0.013331
O       7.69072      1.87620     11.52797         0.465514      0.480054     -0.697586
O       7.70813     13.51967     11.43334         0.430352     -0.147309      0.030299
O       7.63199      5.95842      2.72132         0.624609     -1.001519     -0.313353
O       7.64125      5.76455     15.71064         0.412141      0.222905      0.028928
O       7.68877      5.66827      6.92224        -0.426599      0.365588      0.235188
O       7.64741      5.90033     11.29026         0.137682     -0.303399      0.329182
O       7.80868      9.44281      2.71066        -0.603787      0.873848     -0.572441
O       7.73418      9.69617     15.67831        -0.206894     -0.203048      0.305573
O       7.66262      9.62299      7.09590         0.238762     -0.024803     -0.081889
O       7.61034      9.58914     11.50778         0.376377     -0.286931     -0.387201
O      11.55819      1.97552      2.86210         0.044713      0.207625     -0.540663
O      11.54579      2.00424     15.74581         0.996806     -0.038448      0.244455
O      11.65138     13.51543      2.76740        -0.291277     -0.317425      0.373156
O      11.63416     13.42102     15.58013        -0.564123      0.505255      0.061948
O      11.54291      1.85742      7.08941         0.866139      0.537652      0.105664
O      11.55398     13.58503      7.13092         0.227920     -0.128386     -0.177236
O      11.58612      2.07705     11.34800         0.460357     -0.530649      0.157761
O      11.60901     13.62120     11.39269        -0.805557     -1.023492     -0.017474
O      11.60453      5.58460      2.68117        -0.392851     -0.153904      0.248732
O      11.58515      5.87762     15.77971         0.562949     -0.653901      0.165839
O      11.64388      5.84469      7.04560        -0.719947     -0.077926     -0.121472
O      11.56269      5.86408     11.37583         0.957096     -0.309735     -0.192434
O      11.62037      9.73153      2.68508        -0.165512     -0.451278     -0.115924
O      11.62059      9.66014     15.68336        -0.419541     -0.268338     -0.105405
O      11.54963      9.62732      7.01769         0.122051      0.402785      0.469264
O      11.59240      9.71996     11.40295         0.286682     -0.349119     -0.736520
O       1.78148      3.90551      2.66651        -0.355598     -1.219459     -0.024413
O       1.83158      3.82191     15.76237         0.331032      0.361553     -0.152288
O       2.04767     15.42624      2.54905        -0.102672     -0.043519      0.901438
O       1.88405     15.35582     15.64849         0.497158      1.025460      0.492497
O      13.78917      3.81926      2.92006        -0.895674     -0.094336     -0.908640
O      13.69728      3.84061     15.69900        -0.863765     -0.168397     -0.354034
O      13.53012     15.40985      2.59040        -0.483060      0.989169      0.705907
O      13.47053     15.45100     15.86937        -0.031148      0.101541     -0.285613
O       1.85642      3.98134      6.90996         0.226507     -1.561093      0.436806
O       1.92597     15.41529      6.90689        -0.111273      1.404697      0.545954
O      13.46183      3.88956      7.01601         0.372139     -0.388456     -0.335153
O      13.48853      0.04160      7.14365         0.411393     -0.133139     -0.065597
O       1.86201      3.79733     11.22553         0.288560      0.544991      0.653175
O       1.97903     15.45094     11.36542         0.150999     -0.323179     -0.336444
O      13.59227      3.91093     11.43395        -0.505436     -0.001773      0.062384
O      13.41228      0.04599     11.32851         0.465025      0.563281     -0.186105
O       1.95342      7.73625      2.65105         0.223846      0.326292      0.044707
O       1.85201      7.78837     15.88902         0.344211     -1.173083     -0.265043
O      13.34001      7.59212      2.40271         0.286743      1.461043      0.820422
O      13.58352      7.77822     15.99680         0.097223     -0.379940     -1.229868
O       1.81137      7.75163      6.88471         0.790526      0.204644      0.322685
O      13.48388      7.75601      7.04590         0.143867     -0.315824      0.086396
O       2.00361      7.76218     11.45184        -0.353778      0.013034     -0.478266
O      13.62781      7.75077     11.35104        -0.621799      0.733851     -0.318181
O       1.87374     11.52543      2.56580        -0.536588      0.776572      0.755608
O       2.00026     11.62122     15.66525        -0.565685     -0.935594      0.467427
O      13.62315     11.58405      2.70980        -0.075005     -0.399209      0.349188
O      13.53909     11.62063     15.35220         0.188123     -0.577824      0.711824
O       1.87990     11.57017      7.02176        -0.349279     -0.417102      0.395893
O      13.56486     11.61998      6.94836        -0.470354     -0.188983      0.276689
O       1.94702     11.68818     11.40165        -0.151431     -0.805098     -0.236389
O      13.55809     11.65080     11.27959         0.049607     -0.954949      0.736784
O       5.78885      3.76292      2.57418         0.457130      1.164506      0.351757
O       5.80423      3.87380     15.80509        -0.405533      0.307754     -0.190512
O       5.64042     15.35995      2.83940         0.284190      0.311674     -0.087632
O       5.86687      0.07918     15.71759        -0.118122     -1.333421     -0.305146
O       5.64951      3.80724      7.02096         0.382959      0.915876      0.267443
O       5.69857     15.41325      7.20617         0.088665     -0.069554     -0.400635
O       5.80020      3.79063     11.43453        -0.480774      0.979110     -0.332325
O       5.82057     15.41997     11.38041        -0.157664      0.285785      0.118976
O       5.64798      7.67544      2.78619         0.281613      0.522030     -0.019340
O       5.74790      7.64877     15.70973        -0.153298      0.692166      0.045270
O       5.77086      7.65474      6.96351        -0.095405      0.248717     -0.025816
O       5.58540      7.63608     11.36226         0.153083      1.373724      0.222314
O       5.87205     11.50610      2.68850         0.084743      0.379547     -0.199593
O       5.78418     11.59235     15.63387        -0.158595     -0.857110      0.552163
O       5.83583     11.59013      7.20166        -0.101974     -0.166360     -0.773650
O       5.79285     11.59096     11.54113        -0.267716     -0.476770     -0.455737
O       9.53036      3.82894      2.76225         0.070927      0.088979     -0.032522
O       9.67351      3.89975     15.78605        -0.204367      0.394109     -0.090840
O       9.74757     15.43849      2.70941        -0.207827     -0.135327      0.223510
O       9.68989     15.44466     15.50877        -0.038077     -0.570670      0.504355
O       9.64070      3.86325      7.24494         0.262720      0.173609     -0.665480
O       9.61915      0.04881      7.23718        -0.304413     -0.952217     -0.275433
O       9.63199      3.87114     11.26880        -0.135977      0.573146      0.545995
O       9.62487     15.45025     11.44344         0.180018     -0.243060     -0.268760
O       9.71075      7.67721      2.80099         0.438620      0.262093     -0.210127
O       9.65191      7.72285     15.83507        -0.238041      0.338498     -0.129363
O       9.66010      7.75554      7.02852        -0.354696     -0.967007      0.487331
O       9.69261      7.69698     11.33059        -0.117210      0.376921     -0.131634
O       9.72449     11.53646      2.85184        -0.499077     -0.092378     -0.734870
O       9.71342     11.58056     15.65385        -0.368487     -0.533666      0.289568
O       9.58186     11.61572      6.95609         0.224849     -0.599268      0.672350
O       9.55484     11.52997     11.47923         0.477732     -0.230959     -0.283265
