  # total energy = -7841.81371451 
CRSYTAL
PRIMVEC
    15.6080000000000005    0.0000000000000000    0.0000000000000000
     0.0000000000000000   15.6080000000000005    0.0000000000000000
     0.0000000000000000    0.0000000000000000   16.6239999999999988
PRESSURE
2.02509 2.13147 -0.879121 0.288663 0.415538 0.365904
PRIMCOORD
320 1
Pb       3.44714      3.58083      4.19504         1.009543      1.041614     -1.420452
Pb       3.70627      3.88525      0.03763         0.150185     -0.760976      0.549641
Pb       3.59312     15.45028      3.95099         0.825410      0.119052     -0.051126
Pb       4.00020      0.01221     16.49122        -0.637061      0.472955      0.282928
Pb      15.29998      3.88885      4.09320         0.361105      0.378933     -0.308502
Pb       0.10805      3.91705     16.31306        -0.581969     -0.563114      0.626025
Pb       0.16450     15.48438      4.05704        -0.428945     -0.195983     -0.209577
Pb      15.38202     15.51934      0.12274         1.193229      1.128262     -0.435693
Pb       3.90424      4.08307      8.28317         0.384760      0.199335      0.134735
Pb       4.01701     15.56619      8.02921         0.311410     -0.382160      0.337606
Pb       0.23994      3.75054      8.65684        -0.795667     -0.113123     -0.652819
Pb       0.36148      0.06164      8.75419        -1.447413      0.250754     -0.261057
Pb       3.99494      3.91482     12.70510        -1.059858     -0.925021     -0.533969
Pb       3.84079     15.41512     12.69890         0.107673      0.075612      0.229804
Pb      15.51786      4.11225     12.37522         0.172994     -0.964101      0.210700
Pb      15.49036      0.00192     12.97879         0.389006     -0.174238     -0.515972
Pb       3.90792      7.32518      4.22230        -0.056163      0.944870     -0.944366
Pb       3.88895      7.62310     16.58218         0.209443      0.304957      0.100308
Pb      15.48889      7.58816      4.56653        -0.526867      0.575903     -1.031419
Pb      15.37237      7.77166      0.06682         0.457106      0.427330     -0.025521
Pb       3.84084      7.65197      8.04070        -0.388359      0.199828     -0.222226
Pb      15.52245      7.83784      8.37091         0.061432      0.489912     -0.980255
Pb       4.08559      7.86956     12.14096         0.199947      0.094192     -0.057312
Pb      15.33951      7.97355     12.53602         0.232836      0.467989     -0.105248
Pb       4.16176     11.54619      3.92431        -0.827023     -0.670400      0.842680
Pb       4.10753     11.42416     16.37866        -1.082627     -0.114143      0.579759
Pb      15.45340     11.91398      4.04806         0.089228     -0.421241     -0.227225
Pb       0.02069     11.57518      0.18661         1.148782     -0.565770     -0.637265
Pb       4.08992     11.51971      8.07611        -1.235442      0.167333      0.131916
Pb       0.11841     11.76102      8.77864        -0.074921     -0.314072     -0.784261
Pb       3.88867     11.43257     12.33892        -0.335341      0.650035      0.048974
Pb       0.04838     11.67031     12.65449         0.169145     -0.242638     -0.347954
Pb       7.54857      3.76515      4.34419         1.181964      1.596803     -0.332902
Pb       7.74140      4.15221      0.21938         0.935778     -1.724625     -0.029652
Pb       7.45002     15.51027      4.34584         0.517614      0.288854     -0.222488
Pb       7.81692     15.53762      0.18722        -0.684044      1.016544     -0.324977
Pb       8.07510      3.78563      8.58658        -0.217206      0.348790     -1.099657
Pb       7.73389      0.01775      8.25779         0.750520     -0.131847     -0.193766
Pb       7.66539      3.69737     12.63798         1.200774      1.468667     -0.922150
Pb       7.84562      0.14520     12.32458        -1.527187     -0.509738     -0.499370
Pb       8.00404      7.82496      4.26403        -0.197609     -1.325097     -0.133482
Pb       7.82077      7.55373     16.58556        -0.345968      0.886239      0.010437
Pb       7.69303      7.70448      8.16874         0.509229     -1.123468      0.016528
Pb       7.95262      7.66096     12.21750        -0.307051     -0.076075     -0.832103
Pb       7.98707     11.53688      4.28248        -1.089086      1.455627      0.692450
Pb       7.92951     11.71080      0.05477        -0.290942     -0.505217     -0.417563
Pb       8.28514     11.68514      8.45077        -1.498109      0.754729     -0.246498
Pb       7.32925     11.37703     12.33443         0.240782      0.488151     -0.422864
Pb      11.53700      3.79722      4.38074         0.063879      1.094925     -0.404767
Pb      11.52065      3.84148      0.13964        -0.203271      0.335183      0.049663
Pb      11.57901      0.18521      4.09884        -0.522915     -0.165342      0.422441
Pb      11.39317     15.58423     16.50449        -0.098010      0.573598      0.639904
Pb      11.62103      3.47982      8.30827         0.890472      2.015235     -0.413440
Pb      11.77475     15.32365      8.59692        -0.415445      1.213455      0.068125
Pb      11.68421      4.15445     12.43245        -0.100138      0.067128     -0.545827
Pb      11.87667      0.04162     12.97281        -0.133050     -0.505672     -0.709905
Pb      11.85050      8.06583      3.99191        -0.876327     -0.382581      1.237032
Pb      11.31012      7.97075     16.60902         0.431482      0.050735     -0.179257
Pb      11.46768      7.78582      8.09225         1.027073     -0.754089      0.418274
Pb      11.65466      7.97871     12.47229        -0.414031      0.081860     -0.481141
Pb      11.64268     12.17623      4.30724         0.231018     -0.550794     -0.237903
Pb      11.49958     11.92499      0.17060        -0.417965     -1.935478     -0.147072
Pb      11.93177     12.07559      8.61952         0.243578     -1.098309     -0.180684
Pb      12.14612     12.06794     12.83565        -2.305091     -2.138343     -2.049421
Ti       1.66819      1.88338      2.20595         1.419048      0.874728     -1.890655
Ti       1.95304      1.83531     14.57136         0.395155      0.524923      0.643254
Ti       2.03110     13.42807      1.95308        -0.853665      1.793742      0.543348
Ti       1.90948     13.62231     14.58815         0.552533      0.013156      1.110168
Ti      13.40830      2.06262      2.13604         0.778649      0.568640     -0.688333
Ti      13.64731      2.11003     14.62619         0.270938     -1.249298      1.576690
Ti      13.56000     13.77535      2.02663         0.513004     -0.882598      2.416278
Ti      13.60634     13.50951     14.97890         0.604559      1.402678     -3.318113
Ti       2.03009      1.93998      6.58502        -2.002867     -0.252646     -0.307114
Ti       1.79972     13.67072      6.43027         1.993565     -2.274019     -1.490496
Ti      13.82144      1.97496      5.98309         0.309133     -0.360971      1.513547
Ti      13.67096     13.73759      6.29078        -0.545766      0.439495      0.014254
Ti       2.06525      1.86893     10.70827        -0.437498      1.897292      0.534114
Ti       2.23317     13.71772     10.37370        -1.079005     -1.583434      2.265061
Ti      13.57957      2.15362     10.45093         1.395167     -1.937418      0.734471
Ti      13.95511     13.80700     10.66024        -1.178420     -0.852146      0.085984
Ti       1.76621      5.75700      1.94358         2.092806     -0.498149      1.746671
Ti       1.97372      5.72213     14.48152         0.079920      0.622501     -0.061068
Ti      13.52212      6.03935      2.05199        -0.140168     -1.959394      1.329335
Ti      13.46345      5.82436     14.64518         0.140517      0.375584      0.344622
Ti       1.77313      5.69350      6.18716         1.119613      3.836710     -0.699914
Ti      13.66455      5.86613      6.34612        -2.383117     -0.381416     -1.173148
Ti       1.92080      5.75499     10.63019         0.925278      0.287066     -0.621058
Ti      13.61753      5.86682     10.13835        -2.335439      0.458834      1.455147
Ti       1.76655      9.57485      2.09109         2.017900      0.340980      0.100680
Ti       1.98604      9.48681     14.62879        -0.638327      0.843227      0.859672
Ti      13.50560      9.82094      2.03725         0.480901      1.731897     -0.876652
Ti      13.63230      9.83765     14.72811         0.112884     -1.791697     -0.505026
Ti       1.72025      9.72389      6.15578         1.362720      0.270190      1.282892
Ti      13.53256      9.88501      6.35610         0.937681     -0.666879      1.470146
Ti       1.83835      9.64048     10.38317         1.458027      0.592840      1.301171
Ti      13.52204      9.69827     10.33419         0.435326      1.978408     -0.769479
Ti       5.70600      2.07008      2.08310        -0.783951     -1.252650     -0.791522
Ti       6.08123      1.79764     14.75722         0.066919      0.341825      0.751056
Ti       5.81939     13.46563      2.08887         0.617216      1.921718      0.109300
Ti       5.80131     13.56438     14.59345         0.271701      0.324873     -0.736716
Ti       5.88934      2.07340      6.34349         0.855291     -0.249816      0.071993
Ti       5.72743     13.60820      6.25075         0.260829     -1.314999     -0.528953
Ti       5.83069      2.06661     10.17882        -0.412870     -2.680465     -0.934240
Ti       5.88402     13.83740     10.29782         0.591336     -0.994583      1.826315
Ti       5.82859      5.88513      2.05896         0.536070      0.770474      3.198145
Ti       5.92462      5.61315     14.40432        -0.117126      2.444852     -0.106834
Ti       5.86512      5.77168      6.16108         1.146569      0.396645     -1.895727
Ti       5.98728      5.59101     10.43468         1.241540      2.609504     -1.284303
Ti       6.02495      9.61265      2.12583        -2.588724     -0.720648     -1.131370
Ti       5.77747      9.56084     14.47352         1.017174     -1.163386     -0.360489
Ti       5.76321      9.56043      6.14699         0.229792      0.843642      0.244699
Ti       5.87643      9.68133      9.97546        -0.434365     -0.456501      3.342472
Ti       9.48620      2.24404      2.38693         0.127135     -0.084797     -1.184432
Ti       9.83046      2.12624     14.29813        -1.577745      1.147284      6.056223
Ti       9.55917     13.88769      2.23419         0.338246     -0.111189      0.670897
Ti       9.42848     13.62397     14.38762         1.719115     -0.395439      1.980517
Ti       9.81418      1.88173      6.51143        -2.207008     -0.200139     -0.917652
Ti       9.72621     13.54909      6.49597        -0.832147      1.984066     -1.720292
Ti       9.81886      1.88034     10.56770        -0.384547     -0.114391     -1.340499
Ti       9.72476     13.53886     10.73193         1.520310      0.642854     -0.827459
Ti       9.85101      6.01017      2.15557        -3.166989      0.391794      2.061753
Ti       9.73948      5.91767     14.40305         0.185145     -0.602733      1.294818
Ti       9.82420      5.74927      6.09110        -1.215306      0.473932      1.973083
Ti       9.91477      5.81585     10.17451        -3.484782      0.124894      0.307996
Ti       9.62317      9.92303      2.36875         2.252350     -1.327592     -1.182143
Ti       9.59627      9.81737     14.48588         0.385675     -0.339492     -1.687082
Ti       9.70827      9.72508      6.36224         0.833115     -3.325781     -1.105502
Ti       9.81839      9.78752     10.35985         0.282633     -0.678444      1.266675
O       2.17859      1.95375      0.36691        -1.160832     -0.003806     -0.462904
O       2.11144      1.84743     12.76393        -0.869875     -0.525855     -2.038279
O       1.90877     13.56436      0.21223         0.261680      0.101978     -0.315902
O       1.98063     13.89379     12.79043        -0.358204      0.197764     -0.369597
O      13.64884      2.09209      0.32369        -0.712726     -0.558497     -0.278598
O      13.81344      2.30996     12.91932        -0.071702     -1.094978     -1.461419
O      13.14803     13.55046      0.06777         1.004587      0.864664      3.287296
O      13.84027     13.41434     12.73755         0.975502      1.534847     -1.385783
O       1.84489      1.93224      4.23608        -0.071061     -0.963025      1.139324
O       1.83212     13.61111      4.50294        -0.706931      0.751580      0.972673
O      13.82223      1.75953      4.15561        -0.686745      0.094855      1.686676
O      13.67503     13.58821      4.30969         0.481840      0.838668      1.160168
O       1.81684      2.01059      8.57169         0.722141     -0.036676     -0.750625
O       2.25625     13.71470      8.60874        -0.639096      0.520701      0.133137
O      13.74756      2.05329      8.70357        -0.653588      0.234487     -0.173187
O      13.47586     13.82975      8.52444         0.799418     -0.896889      0.691478
O       1.96630      5.78319      0.07774        -0.966490     -0.346713      0.805718
O       2.04097      5.60724     12.66680         0.332516      0.928296     -0.777948
O      13.59339      5.80258      0.25662         1.440760      0.656479      0.337442
O      13.12911      5.99375     12.81156         0.946434     -0.477251      1.845794
O       2.02176      6.08090      4.39473        -1.708211     -1.472961      1.245836
O      13.52676      5.98508      4.29258         0.007457      0.426911      1.457045
O       2.02828      5.52241      8.86187        -0.228479      0.636902     -0.357072
O      13.68703      5.82528      8.41070        -0.614284     -0.165994     -0.443305
O       2.03696      9.90989     16.56234        -0.501275     -0.622511      2.839577
O       2.09926      9.58192     12.84236        -0.338433      0.694264     -1.122728
O      13.58412      9.93433      0.16612         0.055144     -0.447339     -0.297802
O      13.99490      9.95784     12.72323        -0.780038     -1.100342      0.828037
O       1.54571      9.52340      4.37211         0.490483      0.828656      0.255889
O      13.70933      9.57203      4.63023         0.075069      0.404349     -2.410198
O       1.97678      9.83121      8.66160        -0.166715     -0.558839     -0.188791
O      13.59083      9.75538      8.47447         0.559749      0.035140      2.560021
O       5.77912      2.14825      0.20034        -0.609870     -0.062949      0.214023
O       6.26945      2.02584     12.91424        -1.389387     -1.878521     -0.828057
O       5.81293     13.65741      0.25411         0.234096     -0.848293      1.036493
O       6.22024     13.95043     12.85396        -1.049734     -0.450575     -0.117647
O       6.06256      2.08505      4.52685        -1.426624     -0.521868     -0.826800
O       5.84822     13.46178      4.44554        -0.177131      0.740321     -0.208770
O       5.85848      2.13462      8.33471        -0.628940     -0.648519      2.327831
O       5.90681     13.86416      8.58610        -0.712871     -0.628997     -1.448541
O       5.57342      6.06079      0.30489         1.138247     -1.029785     -2.111728
O       5.93973      5.42672     12.55017        -0.537157      0.962263      0.447193
O       5.70814      5.72958      4.25175        -0.316248      0.139663      1.789369
O       6.00882      5.93361      8.56499         0.213445     -0.304318     -0.657728
O       5.90580      9.66576      0.22205         0.326634      0.619661      0.960356
O       5.46851      9.75273     12.64078         2.249260     -0.525709      1.349117
O       6.02439      9.93516      4.41043        -0.911998     -0.109992     -0.895844
O       5.97150      9.61874      8.18994        -0.313852     -0.199962      0.841235
O       9.73101      2.40396      0.28370        -0.396923     -0.632037      1.130969
O       9.65630      1.72538     12.66820        -0.035839      0.313163     -3.480042
O       9.94237     13.49994      0.29740        -1.220815      2.107916      1.189163
O       9.38618     13.38163     12.64950         0.528018      0.813403     -0.072916
O       9.53630      1.92358      4.32742         0.141957      0.126221      0.017775
O       9.54599     13.69202      4.59249         0.959192     -0.087021     -0.703309
O       9.84825      2.09895      8.47675        -0.254563     -1.279906     -0.240004
O       9.80590     13.59066      8.44057         0.810923     -0.542488      0.354514
O       9.54369      5.75212      0.38474        -0.387866      1.037026     -1.652161
O      10.08164      6.05796     12.70093         0.140079     -0.452655     -0.475352
O       9.93531      6.03010      4.38843         0.586417     -0.290392     -1.794826
O       9.72862      6.03235      8.41659        -0.797719     -0.367970      0.025379
O       9.57588      9.44496      0.49711        -0.288851      1.346451     -0.795694
O       9.72679      9.72321     12.65801        -0.661211      0.410345      1.890755
O       9.81652      9.75666      4.31546         0.166048      0.505020      1.544705
O       9.94153      9.89946      8.53641        -1.082303     -0.877642      0.099148
O       3.76098      1.98096      2.36081         1.727419      0.292388      0.882551
O       3.75131      1.77246     14.63335         3.869525      0.427582      0.914793
O       3.89543     13.35791      2.45299         0.451873      0.728536     -0.603162
O       3.92583     13.78020     14.66962         0.120855      0.584016      0.146505
O      15.44692      2.13376      2.15079         0.903314     -0.870616      0.320147
O       0.01184      1.60699     14.86627        -1.380803      1.434374      0.251794
O      15.53766     13.61456      2.15682        -1.519608      0.654006     -0.058551
O      15.46297     13.70208     14.78533         0.452407      0.284805      0.631482
O       3.86857      2.31288      6.44612        -0.803208     -1.160022      0.083732
O       3.80234     13.71919      6.37706         1.428296      0.634439      0.761797
O       0.09463      2.09566      6.37009        -0.811534     -0.721793      0.024502
O      15.56140     13.70416      6.68993        -0.531486     -0.044569     -0.224138
O       3.88444      2.19079     10.37307         1.210417     -0.859119      0.544539
O       4.01697     13.82423     10.81242         0.264183      0.549324     -0.166753
O      15.57376      2.08926     10.60800         0.082338      0.234878      0.199374
O       0.16046     13.69553     10.49135         0.046065      0.271403     -0.324818
O       3.67098      5.70951      2.46526         0.043003      0.655787     -1.239454
O       3.88930      5.80779     14.85666         0.731770     -1.367667     -1.157867
O      15.57313      5.69748      2.58756        -0.303345      0.951906     -1.753905
O      15.49029      5.51115     14.40523         0.183594      0.847301      1.191517
O       3.84566      5.88161      6.40779        -0.183173     -0.327264      0.901031
O      15.48824      5.77245      6.44951         1.188849     -0.082443     -0.314263
O       4.20040      5.66169     10.38235        -2.369548     -0.029573      1.449920
O      15.39972      5.78875     10.28714         2.767901      0.057223      2.081770
O       3.80062      9.71812      2.22816         0.048162      1.487713      0.498624
O       4.02372      9.77854     14.68864        -2.661514     -0.425526      1.429377
O      15.36535      9.61259      2.06244         3.042378      0.750368     -0.050314
O       0.10055      9.97177     14.84378        -0.567727     -0.810647     -0.168655
O       3.87958      9.60861      6.43190        -0.675982      0.431422      0.149086
O       0.03427      9.80159      6.76915        -0.057576      0.229603     -0.549838
O       4.07991      9.83822     10.59356        -1.665186     -2.053727     -0.960408
O       0.00855      9.48463     10.63046         0.368523      0.730745     -0.417899
O       7.62416      2.11439      2.22081         0.468748      0.103489      0.164517
O       7.87675      1.74400     15.09006         1.301701      0.358665     -0.987200
O       7.68228     13.97671      2.62528         0.196063     -0.982489     -1.781255
O       7.72878     13.57830     15.02790         1.368410      0.068378     -0.051031
O       7.72281      2.02005      6.69307         0.517030     -1.038423     -0.500201
O       7.81496     13.55432      6.63019         0.129257      0.439261      0.113134
O       7.88664      1.99607     10.47666        -0.364398     -0.744822      0.291099
O       7.96419     13.64927     10.48139        -3.093957      0.520713     -0.289864
O       7.78228      6.18532      2.51659        -1.259318     -0.327703     -1.507947
O       7.86845      5.83295     14.39193        -1.058177      0.686816      0.947020
O       7.80502      6.09008      5.98097        -0.977690     -0.097397      1.583866
O       8.02297      5.75780     10.67008        -1.275804      0.548087      0.409006
O       7.83084      9.82177      2.65085        -1.039940     -0.725967     -1.434113
O       7.63952      9.82689     14.78381         2.498692      0.152273     -0.363415
O       7.82898      9.40044      6.44790         0.942143      0.956365     -0.128537
O       7.73806      9.68618     10.68455         0.733973      0.951223     -0.920654
O      11.45009      2.02327      2.42657         1.772105     -0.243615      0.008234
O      11.63161      2.13224     14.48708         1.031770     -0.599472      0.520978
O      11.60923     13.89017      2.59920         0.006678     -0.366818     -0.836337
O      11.77140     13.56911     14.50460        -1.329800      0.433525      0.039106
O      11.55459      2.29548      6.29297         1.730603     -1.429684     -0.290471
O      11.75494     13.61183      6.28677        -0.828944      0.121447      0.715472
O      11.68058      1.83758     10.73681         1.612243      0.879363      0.117410
O      11.67048     13.74449     10.75437         0.480270     -0.599976     -0.255236
O      11.58385      5.69328      2.02466         3.520962      0.821626      0.357258
O      11.54260      5.66489     15.22358         1.578326      1.145578     -1.666608
O      11.55250      5.62000      6.62981         2.852165      0.386522     -0.205240
O      11.60498      5.88879     10.51476         4.452360     -0.549597      0.339752
O      11.71475      9.97603      2.27569        -1.523077     -0.462079      0.351119
O      11.74562      9.61179     14.63381        -0.367044      0.123253      0.548315
O      11.79957      9.54233      6.71782        -1.670101      0.892075     -1.561670
O      11.64444     10.02599     10.66901         1.226391     -0.742603     -0.115054
O       1.94759      3.79659      2.21624        -0.783751      1.712239      0.150342
O       2.02284      3.80564     14.52412        -0.492319      0.303278      1.590123
O       1.89435     15.39508      2.34320        -0.222483      1.059561      0.150511
O       1.99022      0.06061     15.00820        -0.650642     -2.364622     -0.148581
O      13.49992      3.89299      2.73592        -0.420768     -0.092973     -1.452574
O      13.62496      3.86547     15.03317        -0.072577      1.556507     -0.449326
O      13.73372      0.01799      2.16408        -0.716252     -0.552922     -0.201729
O      13.47380     15.57323     14.72451         0.045757      0.427942      0.345130
O       1.80876      4.02438      6.56612         0.827955     -3.500244      0.383000
O       1.99787     15.58291      6.79698        -0.215042      2.061638     -1.021467
O      13.50077      3.89508      6.27200         1.057677     -0.881554     -0.577015
O      13.44854      0.15220      6.48307         0.537763     -0.178451     -0.691868
O       1.99691      3.76758     10.91656        -0.778742      2.352601     -0.568641
O       1.76137      0.11912     10.83541         0.849566     -2.156599     -1.172831
O      13.57007      3.98504     10.99413        -0.463855      0.854193     -1.825283
O      13.75897     15.58134     10.73104         0.128708      0.770937      0.271149
O       1.99134      7.82288      2.20478        -1.059279     -0.766384     -0.809325
O       2.04387      7.60573     14.73577        -0.992112      1.153399      0.101113
O      13.55477      7.92535      2.21152        -0.505755     -2.033507     -0.311898
O      14.02267      7.85064     14.92758        -1.428544     -1.144664     -0.982481
O       1.79786      7.68739      6.79141        -0.126351      0.519253     -0.572836
O      13.87692      7.78683      6.53622        -0.465700     -0.985702      0.249389
O       2.03447      7.81232     10.89389        -0.069495     -1.970995     -1.267392
O      13.58300      7.90793     10.71723        -0.130778     -1.900442     -0.216204
O       1.60341     11.76025      2.39479         0.288361     -2.777708     -0.204542
O       1.90390     11.87980     14.86433         0.486045     -0.674461     -0.799870
O      13.58194     11.79735      2.32251         0.186676      0.336638     -0.249394
O      13.45827     11.63455     14.66821         0.969891      1.605409      1.303937
O       2.18593     11.81511      6.75536        -1.539208     -1.035684     -1.077516
O      13.44498     11.71966      6.43643         0.796697      1.567781      0.118690
O       2.12605     11.81302     10.77116        -1.090776     -0.251879     -0.865161
O      14.12931     11.66314     10.55209        -1.317219      0.128934     -0.281958
O       5.89072      4.13464      2.19172        -0.028434     -3.306558     -0.078140
O       6.24562      3.81646     14.58621        -1.312096      0.499528      1.458441
O       5.70911      0.16186      2.21649         0.066851     -0.561775      0.499629
O       6.09537     15.58714     15.10323        -1.518552     -0.379018     -0.481789
O       6.03792      3.99839      6.52951        -0.649064     -0.277568     -0.356110
O       5.72299     15.57125      6.37818         0.470035      1.356686      0.479089
O       6.17963      3.74520     10.58007        -0.535016      1.472549      0.288085
O       5.97831      0.11650     10.41564         0.065063      0.050511      0.782865
O       5.71719      7.80684      2.10822         0.311144      2.044251      1.205356
O       5.87639      7.58806     14.56501        -0.114245      1.222520      0.151490
O       5.65889      7.74720      6.03055         0.499563     -0.230077      1.400734
O       6.03484      7.82746     10.59203        -0.649292     -0.180736     -0.276036
O       6.20052     11.72544      2.39206        -1.091824     -0.504980     -0.736157
O       5.67115     11.68761     14.59374         0.947039      0.474761      0.305339
O       5.77177     11.76953      6.58249         0.144487     -0.679404     -0.427349
O       5.56675     11.64612     10.71581         2.654348      1.441231     -0.922706
O       9.50486      4.22561      2.54379        -0.020510     -3.356186     -0.012768
O       9.62758      4.02307     14.62637         0.259817     -2.092228     -0.731988
O       9.51772      0.14577      2.15022         0.855276     -0.622388      0.186981
O      10.06944     15.55793     14.68429        -1.382132     -0.537992     -0.508937
O       9.55073      3.87227      6.46740        -0.236319      0.296171     -0.297855
O       9.77702      0.01480      6.50734         0.001411     -0.286398      0.403477
O       9.80904      3.85682     10.24698         0.820504      0.325725      1.145539
O       9.82664      0.07876     10.34728        -0.735098     -1.144382      0.632540
O       9.75474      7.92365      2.52443         0.982550     -0.172327     -0.646681
O       9.81208      7.82819     14.75684        -0.594288      0.903741      0.619472
O      10.01597      7.72523      6.40826        -1.131131      1.411355     -0.015071
O       9.89130      7.76113     10.76018        -0.485269      2.087881     -0.807661
O       9.47716     11.90686      2.40232         0.530203     -0.768064     -0.480114
O       9.73978     11.77610     14.99307        -0.188371     -1.151612     -0.687134
O       9.74904     11.46872      6.43496         0.034102      3.180168      0.324919
O       9.68801     11.72771     10.56181        -0.160805     -0.789118     -0.434853
