  # total energy = -7882.14807543 
CRSYTAL
PRIMVEC
    15.464    0.0000000000000000    0.0000000000000000
     0.0000000000000000   15.464    0.0000000000000000
     0.0000000000000000    0.0000000000000000   17.350608
PRESSURE
-1.07661 -0.745078 -1.02126 0.235454 0.012779 -0.040837
PRIMCOORD
320 1
Pb       3.86945      3.59211      4.31309        -0.441633      0.668115      0.046510
Pb       3.86250      3.81199     17.17414        -0.196279      0.087899      0.269862
Pb       3.88683     15.37745      4.29534         0.150825     -0.032372      0.052675
Pb       3.86967      0.00786     17.30322        -0.264674     -0.168334     -0.407880
Pb      15.38759      3.84753      4.30256         0.127198     -0.079927     -0.007802
Pb      15.31459      3.75451      0.04294         0.447386      0.403650     -0.452839
Pb      15.39105     15.43590      4.20860         0.393971     -0.074592      0.697157
Pb      15.31423     15.42744     17.28613         0.628122     -0.115228      0.071384
Pb       3.83273      3.81522      8.55672        -0.536966      0.209734      0.065502
Pb       3.91578     15.43650      8.70048        -0.359553     -0.132925     -0.352360
Pb      15.40056      3.92517      8.48524         0.404172     -0.314777      0.421604
Pb       0.08335      0.12681      8.70101         0.058400     -0.404135     -0.221865
Pb       3.77407      3.91408     12.99426         0.020315      0.046321     -0.234708
Pb       3.80821      0.03281     12.93778        -0.614914      0.034006     -0.416783
Pb      15.24276      3.83635     12.94951         0.566939     -0.224953      0.193834
Pb      15.38676     15.40178     12.96004         0.345361      0.092453     -0.704418
Pb       3.95397      7.58502      4.18267        -0.006808      1.003039      0.930537
Pb       3.85515      7.70772      0.11932         0.141631      0.297118     -0.204747
Pb       0.04473      7.76375      4.24429         0.144097     -0.310410      0.443537
Pb       0.01684      7.76742      0.12596         0.118813      0.170670     -0.154805
Pb       3.73549      7.58597      8.66059         0.114544      0.334044     -0.200102
Pb      15.41384      7.84138      8.65086         0.213448     -0.409029     -0.507641
Pb       3.89963      7.77044     12.98970        -0.204107      0.064589     -0.509303
Pb      15.37603      7.63969     12.96795         0.335640      0.341356     -0.189640
Pb       4.04322     11.51610      4.39607        -0.591244     -0.094827     -0.339194
Pb       3.95005     11.61496     17.30264        -0.577893      0.183891      0.145726
Pb       0.02066     11.61752      4.34015         0.291446      0.174542     -0.360188
Pb      15.45336     11.60285      0.03036         0.258827      0.261470     -0.143066
Pb       4.02244     11.48427      8.82392        -0.281573      0.406965     -0.378857
Pb       0.04191     11.66646      8.59309        -0.462475     -0.123762     -0.286044
Pb       3.81525     11.65419     12.97067         0.456629     -0.446556     -0.072717
Pb      15.39732     11.31968     12.94820         0.056727      0.980960      0.688595
Pb       7.67025      3.76900      4.33352         0.477493     -0.068934     -0.442441
Pb       7.66650      3.82274     17.26005         0.249642      0.118644     -0.024995
Pb       7.78056     15.37267      4.31568        -0.255115      0.080260     -0.159548
Pb       7.66019     15.42795     17.24690        -0.516009      0.069027      0.486699
Pb       7.58520      3.82424      8.51687         0.826983     -0.039568      1.085202
Pb       7.76638     15.38179      8.70694        -0.218759      0.012898     -0.945337
Pb       7.69735      3.94917     12.96678         0.126600      0.028382     -0.387968
Pb       7.66140      0.10316     12.97292         0.302108      0.118788     -0.628756
Pb       7.80255      7.69545      4.21970        -0.592677      0.043175      0.670431
Pb       7.77935      7.84683      0.04308         0.149655     -0.362567     -0.520573
Pb       7.54678      7.61577      8.58231         0.792310      0.906414      0.568349
Pb       7.82487      7.81174     13.02788        -0.290223     -0.182062      0.052233
Pb       7.78423     11.56564      4.41351        -0.126008      0.292763      0.033827
Pb       7.73516     11.62489     17.20294        -0.110761      0.290038      0.695932
Pb       7.89947     11.50176      8.65772        -0.134061      0.131008     -0.526890
Pb       7.59586     11.56516     12.85307         0.047035     -0.034629      0.019485
Pb      11.40685      3.87804      4.41616         0.349387     -0.071322     -0.654269
Pb      11.51867      3.76134     17.31069        -0.224314      0.362007     -0.435952
Pb      11.62316      0.02450      4.33670        -0.330428     -0.150319     -0.138570
Pb      11.55294     15.28913     17.24762         0.209322      0.976817      0.615392
Pb      11.66999      3.85772      8.72407        -0.351419      0.196867     -0.574724
Pb      11.64922      0.00306      8.67759        -0.073610     -0.385802     -0.245795
Pb      11.51683      3.85369     12.88851        -0.482484     -0.163239      0.630786
Pb      11.47185      0.05871     12.95398         0.077260     -0.480041     -0.523958
Pb      11.58209      7.68528      4.17410        -0.288834     -0.387035      0.917120
Pb      11.53901      7.62858      0.04873        -0.128087     -0.065129     -0.578547
Pb      11.43430      7.74200      8.59175         0.497203     -0.275864      0.077201
Pb      11.59008      7.54433     13.00890        -0.000323      0.471079      0.209138
Pb      11.64501     11.59855      4.38901        -0.452941      0.282160     -0.119335
Pb      11.58593     11.61716     17.29617         0.344001      0.081828     -0.312137
Pb      11.74327     11.68667      8.64971        -0.171432     -0.044403     -0.093881
Pb      11.57818     11.49723     12.84288         0.033572      0.760500      0.275612
Ti       1.92453      1.88543      2.36314         0.055262      0.415079      1.186311
Ti       1.83700      1.91417     15.32554         0.331984      0.677675     -0.043246
Ti       1.93929     13.55324      2.35187        -0.238037     -0.744519     -0.316312
Ti       1.88032     13.46503     15.25627        -0.265487      0.123940      1.655251
Ti      13.51721      1.93876      2.26095        -0.178351      0.122797     -1.165073
Ti      13.44435      1.96813     15.26104        -0.356867      0.093717      0.422626
Ti      13.47043     13.54201      2.34438         0.317156     -0.306066      0.769738
Ti      13.48580     13.55368     15.28339         0.592582     -1.474664     -0.871751
Ti       1.96211      1.88727      6.66038        -0.626039     -0.270097     -0.981131
Ti       1.87641     13.45452      6.65039         0.671611      1.536664     -0.185357
Ti      13.54806      1.89154      6.61647         0.065697     -0.130204      0.702083
Ti      13.50261     13.54612      6.55225         0.119516     -0.027299      1.342645
Ti       1.81076      2.01724     11.02198         0.216741     -0.979778     -0.060459
Ti       1.90213     13.39902     11.04370        -0.432420      1.162503      2.210455
Ti      13.40496      1.86562     10.95086         0.603388     -0.308926      0.290535
Ti      13.52109     13.45980     10.99564        -0.974191      0.397901      0.009553
Ti       1.94672      5.78361      2.33971        -0.463093     -0.380693     -0.016066
Ti       1.97281      5.91789     15.34698        -0.562372     -1.920562      0.034231
Ti      13.51470      5.83256      2.34587        -0.134364     -0.850156      0.115829
Ti      13.58719      5.81097     15.36598        -0.865574     -0.839491     -0.737923
Ti       1.85819      5.81307      6.56184         0.745456     -0.398937      0.482149
Ti      13.50375      5.80225      6.62877        -0.223073     -0.083120      0.419076
Ti       1.80492      5.81600     10.98762         1.246910     -0.437243     -0.263930
Ti      13.46734      5.71681     10.94745        -0.042890      0.539592     -1.167511
Ti       1.94912      9.72747      2.41828         0.528450      0.406569     -0.620703
Ti       2.02604      9.66166     15.38416        -1.380246      0.608031     -0.304682
Ti      13.49632      9.71343      2.37469         0.685577     -0.471974     -0.284764
Ti      13.54754      9.59747     15.40598         0.427073      1.388645     -1.129710
Ti       2.02792      9.67846      6.66963        -0.352741     -0.306490     -0.102897
Ti      13.57571      9.59086      6.62079        -0.099369      0.881312      1.526088
Ti       1.92181      9.63118     10.88896         0.194027     -0.746239      0.050765
Ti      13.47394      9.55852     10.89865        -0.022776      0.878881      0.597667
Ti       5.86264      1.91804      2.29514         0.035888     -1.245411      0.323290
Ti       5.75568      1.91555     15.23759        -0.465248      0.341558     -0.021350
Ti       5.77408     13.48638      2.33165         0.996310      0.423750      0.227424
Ti       5.75767     13.47298     15.21016        -0.657795      0.176270     -0.925974
Ti       5.85096      1.97183      6.59198         0.218437     -1.371175     -0.396816
Ti       5.73546     13.51474      6.68272         0.220446      0.677202     -0.265608
Ti       5.67360      1.96380     10.93669         0.190276      0.503305     -0.094544
Ti       5.76252     13.59995     10.97393        -0.633399     -0.959919     -0.569740
Ti       5.86095      5.69380      2.30869        -0.027256      0.516095      0.258594
Ti       5.83138      5.88380     15.40054         0.435711     -0.309618     -0.313351
Ti       5.77943      5.84083      6.67306        -0.936716      0.666112     -1.451038
Ti       5.76307      5.88369     10.99396         0.114048     -0.769997     -0.432034
Ti       5.86339      9.72042      2.28055        -0.766182     -0.287489      1.032079
Ti       5.84122      9.69239     15.37502        -0.079626     -0.659367     -1.583538
Ti       5.74489      9.71607      6.68758         0.852061     -0.846847     -0.527309
Ti       5.78996      9.62682     10.87703        -0.509573      1.102147      1.033148
Ti       9.76586      1.87734      2.22310        -1.375936      0.467438      1.587513
Ti       9.56465      1.80663     15.31967         0.678886      1.748418     -0.116940
Ti       9.60583     13.52323      2.24902         0.004443     -0.108603      2.093313
Ti       9.58442     13.56531     15.23516         0.321314     -0.379789     -0.785705
Ti       9.75516      1.99299      6.68364        -0.460471     -1.312460     -0.047595
Ti       9.68260     13.57192      6.68651         0.065930     -0.321734      0.767229
Ti       9.57566      2.00011     10.87084        -0.147743      0.221078      1.386547
Ti       9.54839     13.66000     10.94447         2.115816     -0.254375      1.122570
Ti       9.63922      5.78512      2.21054         0.033966     -0.553339      0.017969
Ti       9.65162      5.74540     15.36185         0.090774      0.260987     -0.388003
Ti       9.57764      5.79005      6.67355         1.305850      0.454315     -0.214700
Ti       9.61463      5.90981     11.01679        -0.283995     -1.806880     -1.175148
Ti       9.63747      9.72288      2.35099        -0.328026     -0.186916     -0.017013
Ti       9.74210      9.72772     15.32283        -1.260028     -1.081311      0.384669
Ti       9.71631      9.65179      6.65386        -0.449170      0.310852      1.067349
Ti       9.65096      9.70489     10.92751         0.123056      0.078022     -0.369214
O       1.93862      1.96449      0.64669        -0.041932     -0.222679     -1.255988
O       1.82606      1.94935     13.59239         0.209973     -0.084076     -0.312583
O       1.91253     13.58163      0.60639         0.258639      0.093859     -0.660157
O       2.00144     13.43763     13.55439        -0.436898      0.170882     -1.414381
O      13.56342      1.81159      0.42682        -0.107249      0.475648      0.975517
O      13.38066      2.04123     13.47637         0.399860     -0.144215      0.812016
O      13.42996     13.46604      0.61182         0.068169      0.455265     -1.108825
O      13.34871     13.34012     13.53304         0.339574      0.656548      0.419337
O       1.94090      1.94722      4.85141         0.210592     -0.359940      0.548465
O       1.91276     13.60380      4.90945         0.118356     -0.198454     -0.299744
O      13.52873      1.99050      4.88475        -0.288790     -0.215199     -0.545414
O      13.50739     13.42038      4.79423        -0.090367      0.084721     -0.547139
O       1.81976      2.05102      9.26605        -0.076623     -0.112110     -0.730451
O       1.88942     13.47803      9.37998        -0.044789      0.020052     -2.801391
O      13.48524      1.83806      9.17718         0.024528      0.151931      0.320734
O      13.40351     13.52501      9.23078         0.547116      0.179373      0.268326
O       1.74901      5.93192      0.55636         0.978335     -0.251750      0.967193
O       1.97520      5.92669     13.57278        -0.067481      0.023837     -0.072751
O      13.38433      6.09359      0.61075         0.538259     -0.840832     -0.381224
O      13.49644      5.73249     13.52801         0.380017      0.192553      0.832380
O       1.83734      5.76900      4.83154         0.245725      0.015763     -0.593008
O      13.54890      5.82472      4.87125        -0.302873     -0.281727     -0.128393
O       1.90456      5.62310      9.22383        -0.076445      0.565433      0.683631
O      13.59264      5.73248      9.16392        -0.468828      0.070890      0.926162
O       1.91489      9.64308      0.63747         0.343436     -0.279677     -0.098117
O       1.86507      9.72583     13.61326         0.093834     -0.407712      0.472394
O      13.45504      9.46406      0.62659        -0.246075      0.569992     -0.176326
O      13.56207      9.81542     13.56186         0.066942     -0.851511      1.602159
O       2.13547      9.76214      4.91149        -0.479386     -0.349630     -0.068363
O      13.72509      9.87867      4.92842        -0.572044     -0.650034     -1.167145
O       1.88477      9.48712      9.11264        -0.195138      0.582217      0.558284
O      13.52868      9.61844      9.15815         0.144770     -0.273938     -0.429277
O       5.78962      1.95462      0.52229        -0.020585     -0.330478     -0.046745
O       5.52633      1.93108     13.48084         0.868522     -0.206382     -0.015073
O       5.79134     13.35919      0.55860         0.035619      0.378234     -0.458781
O       5.71758     13.29059     13.38879         0.390111      0.947664      1.496315
O       5.80642      1.96695      4.76389         0.075444     -0.118922      1.634193
O       5.78518     13.53161      4.87110        -0.144326     -0.124386      1.135468
O       5.70411      1.87577      9.14266         0.099461      0.528999      0.682823
O       5.59795     13.70952      9.17444         0.588780     -0.764468      0.602414
O       5.95757      5.67083      0.56110        -0.554373      0.276849      0.243555
O       5.78868      5.95304     13.61657        -0.047629     -0.081319      0.295893
O       5.91014      5.96327      4.89914        -0.119814     -0.486950      0.190408
O       5.92564      5.84147      9.20133        -0.656473     -0.238560      0.580500
O       5.86141      9.79473      0.51492        -0.142880      0.098840     -0.186124
O       5.75652      9.76708     13.52875         0.494174     -0.449764      1.357036
O       5.67583      9.72070      4.86812         0.118306     -0.057995      1.467169
O       5.81476      9.71195      9.13661         0.131742     -0.021736     -0.277405
O       9.48135      1.91797      0.51645         0.740478     -0.323254     -0.320360
O       9.62346      1.80320     13.54775        -0.423597      0.003701      0.616469
O       9.61414     13.55672      0.51508        -0.029794     -0.112338     -0.623128
O       9.64610     13.69188     13.44833        -0.334473     -0.106797      1.168846
O       9.79575      1.98869      4.89276        -0.004352      0.071235     -0.035615
O       9.67246     13.48379      4.95261         0.134918      0.096552     -0.540991
O       9.78954      2.07959      9.16416        -0.603754     -0.566605     -0.831924
O       9.69420     13.76029      9.22687        -0.230879     -0.366654     -0.848635
O       9.69247      5.71766      0.43156        -0.216576      0.371794      0.443895
O       9.56887      5.72992     13.54536         0.095860      0.100962      0.228777
O       9.63659      5.93172      4.87604         0.102461     -0.803846      1.187779
O       9.67257      5.78714      9.22397        -0.047946      0.453560      0.657765
O       9.67594      9.58949      0.58160         0.000874      0.745155      0.221393
O       9.54259      9.71229     13.60412         0.269105     -0.018795     -0.643347
O       9.61486      9.72132      4.93880         0.252193     -0.248631     -1.220136
O       9.62466      9.47408      9.15906         0.244235      0.575653      0.874861
O       3.92487      1.73578      2.74452        -0.840541      0.377740     -0.239048
O       3.89133      1.97665     15.64239        -0.795195     -0.610003      0.670041
O       3.92589     13.52941      2.59763        -0.578262      0.444636      0.574391
O       3.82253     13.41738     15.56169         0.850065      0.450248      0.690275
O      15.30120      1.89685      2.70189         2.371768      0.466179      0.119783
O      15.41565      2.11959     15.67473        -0.263913     -0.344598     -0.014292
O       0.05087     13.41600      2.72386        -1.058695      0.530347      0.080198
O      15.45157     13.45297     15.65472        -0.457950      0.537565      0.130591
O       3.88679      1.81497      7.06911         0.409608      0.828080     -0.477787
O       3.82222     13.57134      7.09358         0.586627      0.111116     -0.263744
O      15.45902      1.76234      7.01510        -0.575927      0.884801      0.048134
O      15.40254     13.54007      6.99509         0.490880     -0.232291      0.316007
O       3.71847      1.92196     11.30937         1.178748      0.138185      0.358268
O       3.79759     13.52931     11.46862         0.064922      0.034989     -0.338098
O      15.39586      1.96807     11.46447        -1.169306      0.125438     -0.161630
O      15.43322     13.46298     11.45366        -0.687228     -0.003997     -0.114419
O       3.96754      5.80839      2.77849        -0.363100     -0.286899     -1.119517
O       3.89275      5.89717     15.86387        -0.082286      0.180126     -0.224711
O       0.02082      5.62781      2.76724         0.045516      0.886016     -0.588932
O      15.42611      5.70051     15.80308        -0.407467      0.299321     -0.436277
O       3.86050      5.80444      7.02328         0.018175     -0.754033      0.058201
O       0.02698      5.83636      7.01976        -0.850349     -0.273232      0.041252
O       3.87477      5.88528     11.33194        -0.046819      0.106834      0.198564
O      15.36175      5.77132     11.29006         0.517497      0.224367      0.572120
O       3.84385      9.61393      2.76178         0.979782      0.423863     -0.501464
O       3.88865      9.64897     15.72574        -0.166254     -0.346886      0.227782
O       0.00001      9.62601      2.66847        -0.094666      0.017550      0.470938
O      15.43401      9.78059     15.97356        -0.608644     -1.325142     -1.039925
O       3.85105      9.62881      7.26425         0.486842      0.295590     -0.529193
O       0.09241      9.70955      7.01645        -0.618286     -0.296211      0.272785
O       3.82545      9.57791     11.17608         0.489761      0.259811      0.288059
O      15.42010      9.67746     11.38547        -0.313674     -0.884730     -0.561460
O       7.77034      1.85237      2.70793         0.388827      0.784663      0.038593
O       7.66708      1.91643     15.64693         0.160378     -0.519908     -0.098727
O       7.72968     13.44369      2.87546         0.807030      0.609809     -0.815098
O       7.65316     13.53227     15.63882         0.376491     -0.200073     -0.178948
O       7.72420      1.97548      7.01938        -0.360382     -0.138208     -0.191414
O       7.79239     13.42576      7.17565        -0.740856      0.127425     -0.130620
O       7.60672      1.89215     11.36333        -0.592004      0.551852     -0.123948
O       7.68576     13.55772     11.23335        -0.805283     -0.127738      0.306564
O       7.83563      5.61167      2.77373        -1.919991      0.531419     -0.256321
O       7.70895      5.80012     15.78013        -0.114564      0.047056     -0.142409
O       7.70225      5.76499      7.09779         0.584969      0.288020     -0.380727
O       7.74478      5.78425     11.40879        -0.671885      0.328046      0.184555
O       7.70169      9.69145      2.83610         0.898477      0.409839     -0.600046
O       7.75861      9.75344     15.84432         0.158705     -0.579289     -0.575598
O       7.74996      9.67289      7.03269        -0.554500      0.083965     -0.032280
O       7.71301      9.68937     11.34320         0.703870      0.237488     -0.004169
O      11.69039      1.80678      2.71190        -1.560567      0.327551     -0.183343
O      11.50995      1.88049     15.70682         0.403116     -0.472045     -0.027279
O      11.54511     13.49893      2.71228         0.385368     -0.084755     -0.083411
O      11.55318     13.55925     15.79406        -0.018835     -0.023159     -0.588617
O      11.59342      1.99582      7.05239         0.397207     -0.210549     -0.018881
O      11.63595     13.56114      7.06880        -0.503987     -0.361245     -0.071009
O      11.49028      1.93494     11.33501         0.296454     -0.321681     -0.046966
O      11.50869     13.74304     11.31704         0.113733     -0.632497      0.256491
O      11.47813      5.86153      2.61952         1.328778      0.364432      0.482771
O      11.53681      5.78164     15.67769         0.652295      0.001215      0.338036
O      11.62327      5.82015      7.13342        -0.644946     -0.386526     -0.568801
O      11.55906      5.72754     11.45084         0.025992      0.606146     -0.396145
O      11.60143      9.59125      2.85249        -0.336519      0.407273     -0.556864
O      11.56944      9.70794     15.71090         0.873935      0.185579      0.134260
O      11.66057      9.58278      6.92547        -0.095702      0.121099      0.100868
O      11.55341      9.62846     11.46717         0.042297     -0.500966     -0.668060
O       2.06353      3.80273      2.76049        -0.362008      0.205815     -0.351301
O       2.01843      3.96345     15.67578        -0.063399     -0.721731      0.260612
O       1.79192     15.45868      2.75941         0.665247      0.187258     -0.089850
O       1.79047      0.00350     15.71728         0.671145      0.229167     -0.048453
O      13.52085      3.87471      2.63344        -0.515622      0.086950     -0.190724
O      13.34556      3.86096     15.83016         0.716204     -0.070458     -0.265826
O      13.60214     15.43652      2.66174        -0.516386     -0.471962      0.079363
O      13.62689      0.01839     15.65787        -0.603551      0.041308     -0.347338
O       1.81590      3.79849      6.97497         0.722020      0.320639      0.220889
O       1.84325      0.02147      7.12121         0.561616     -0.544840      0.179117
O      13.48870      3.83971      7.00824         0.453494      0.253978     -0.019511
O      13.39052     15.43148      6.92026         0.378430      0.411383      0.062744
O       1.89649      3.90621     11.47618        -0.099181      0.733309      0.094677
O       1.76553      0.05068     11.37879         0.297078     -0.515057      0.421363
O      13.35748      3.81690     11.31159         0.643419      0.366730     -0.033581
O      13.42610     15.44271     11.39129         0.825473      0.565353      0.112629
O       1.96385      7.68443      2.79066        -0.290340     -0.222954     -0.358048
O       1.77144      7.72859     15.68778         0.431441      1.058394      0.523446
O      13.61533      7.66245      2.82623        -0.341850      0.923706      0.090134
O      13.43335      7.67301     15.64939         0.482319      1.130538     -0.067296
O       2.00417      7.65685      7.02142        -0.408339      0.784433     -0.075281
O      13.57153      7.69475      7.04060         0.232577      0.663446     -0.280672
O       2.00341      7.75512     11.42210        -1.263795     -0.824114     -0.121298
O      13.47591      7.71358     11.35570         0.053669     -0.711411      0.128445
O       1.98774     11.63687      2.69266        -0.021336     -0.720233      0.270771
O       1.89377     11.55801     15.76354         0.283974      0.137460      0.112798
O      13.59888     11.57587      2.67240        -0.686387     -0.235036      0.076158
O      13.60238     11.65686     15.77489        -1.191929     -0.737192      0.438568
O       2.02128     11.62473      6.96263        -0.437016     -0.563268      0.629506
O      13.50516     11.65569      7.13169         0.266814     -0.855397     -0.338386
O       1.91764     11.46998     11.31949         0.040307      0.677194      0.026497
O      13.38597     11.53816     11.15135         0.069679      0.196088      0.691549
O       5.70043      3.79649      2.72091         0.690885      0.569197     -0.009164
O       5.87793      3.83948     15.65462        -0.714235      0.297495     -0.071822
O       5.92285     15.44555      2.70404        -0.299700     -0.462949     -0.153577
O       5.79348     15.38104     15.65482        -0.424082      0.270190     -0.137107
O       5.87266      3.93548      6.92215        -0.766781     -1.375679      0.107429
O       5.95099     15.41071      6.98417        -0.511582      0.666727     -0.064364
O       5.68690      3.93265     11.38396         0.226245     -0.488105     -0.149851
O       5.66288     15.43978     11.25190         0.103508      1.117488      0.801318
O       5.89210      7.83962      2.53453        -0.056641     -1.728723      0.195193
O       5.84468      7.79356     15.87399        -0.052554     -0.219529     -0.159464
O       5.71128      7.74804      7.14345         0.381816      0.005403     -0.406646
O       5.91435      7.83512     11.30300        -0.360937     -1.624117      0.331185
O       5.93044     11.62218      2.82794        -0.979096     -0.513020     -0.381960
O       5.80059     11.53770     15.67172        -0.019967      1.283694      0.290005
O       5.75318     11.57090      7.10922        -0.129286      0.352293     -0.064041
O       5.68987     11.62069     11.32246         0.336195     -0.381596     -0.447608
O       9.73236      3.87549      2.69287         0.274546     -1.160698     -0.049172
O       9.65403      3.82073     15.74851        -0.278569     -0.667079     -0.174167
O       9.68209     15.41972      2.77297         0.075659      0.283651     -0.533427
O       9.53681     15.42400     15.83780         0.422427     -0.104797     -0.526545
O       9.63892      3.80222      7.09348         0.002549      1.999338     -0.448224
O       9.67049     15.44800      7.04078        -0.138155      0.883957      0.059427
O       9.58990      3.85776     11.36008        -0.105999      0.110343      0.308557
O       9.43959      0.12303     11.37406         0.470172     -0.662644     -0.039067
O       9.46151      7.75792      2.63003         0.985131     -0.170718     -0.162764
O       9.65642      7.67896     15.63504        -0.261467      1.216338      0.306792
O       9.69869      7.70378      7.06342        -0.476293     -0.428777     -0.372557
O       9.69758      7.72605     11.50274        -0.263745      0.607388     -0.290221
O       9.62939     11.60894      2.83705         0.464855     -0.475590     -0.808790
O       9.63645     11.71176     15.62715         0.279519     -0.772831      0.254458
O       9.77064     11.59324      7.16100        -0.140701     -0.486220     -0.145161
O       9.73740     11.63093     11.20963        -0.563967     -0.380800     -0.030057
