  # total energy = -7840.96639052 
CRSYTAL
PRIMVEC
    15.6080000000000005    0.0000000000000000    0.0000000000000000
     0.0000000000000000   15.6080000000000005    0.0000000000000000
     0.0000000000000000    0.0000000000000000   16.6239999999999988
PRESSURE
3.52154 2.44424 0.785222 -0.092848 0.578101 -0.029679
PRIMCOORD
320 1
Pb       3.49012      3.91022      4.06082         1.118653     -0.889499      0.905616
Pb       3.75401      3.94940      0.23291        -0.304418      0.683090     -0.485956
Pb       3.62591     15.59991      4.16235         0.594460      0.374751     -0.161857
Pb       3.94234     15.49751     16.26950        -0.142938      0.616011      1.630735
Pb      15.39444      3.94987      4.11661         0.247136     -0.357732     -0.028630
Pb       0.11449      3.73285     16.37486         0.312102      1.048742      0.820515
Pb       0.21474     15.40056      4.26338        -0.768444      0.533044     -0.773792
Pb       0.00771     15.40232      0.06453         1.654090      0.412770      0.543084
Pb       3.93493      3.97980      8.36011        -0.571927     -0.479276     -1.136509
Pb       3.92837     15.52844      7.89004        -0.386577      0.262329      1.649598
Pb       0.03434      3.96086      8.43782         0.205907     -0.014265      0.992510
Pb       0.29509      0.29553      8.69307        -1.305852     -1.267123     -1.112167
Pb       4.18664      3.81042     12.51633        -1.593690      0.706374      1.007930
Pb       3.88848     15.41394     12.43016        -0.356795     -0.047655      0.352396
Pb      15.44592      3.82874     12.36960         1.374137      0.585462     -0.106780
Pb       0.07897      0.26317     12.66599        -0.296857     -1.084185     -0.332055
Pb       3.78759      7.55296      4.31085         0.859789     -0.553233      0.102016
Pb       3.82232      7.87429      0.06928         0.157966     -1.064924     -0.485204
Pb      15.36243      7.98974      4.36919         0.388105     -0.842343      0.159045
Pb      15.37086      7.85253      0.27680         0.737540     -0.068548     -1.787948
Pb       3.65177      7.81830      8.06061         1.096355     -1.967437      1.290017
Pb      15.52796      7.58709      8.40164         0.278907      0.875133     -0.000162
Pb       4.10779      7.96973     12.22754        -0.500858      0.031266      1.778367
Pb      15.58032      7.77078     12.66638        -0.030877      0.865420     -0.654676
Pb       4.18692     11.42788      3.78048        -0.632499      0.924782      1.469299
Pb       4.20999     11.51108     16.35132        -1.514634     -0.164926     -0.516117
Pb      15.33189     11.80314      4.28496         0.843013      0.028920     -0.222023
Pb      15.59504     11.62237      0.22133         0.832866      0.576002     -0.997178
Pb       4.18299     11.66016      8.46898        -0.645951     -0.121135     -0.809260
Pb       0.05432     11.49824      8.76569         0.056267     -0.538593     -0.873835
Pb       3.58186     11.63909     12.21596        -0.033158     -0.443140      2.505640
Pb       0.02858     11.64201     12.45973         0.346312     -0.268609      0.929899
Pb       7.72113      3.89781      4.44695        -1.316560      1.105574     -0.863015
Pb       7.89125      3.78289      0.26454        -1.367427      0.807838     -0.687609
Pb       7.29265      0.13120      4.09775         2.264516     -0.800198      0.490002
Pb       7.92286      0.22812      0.26865        -1.579720     -0.456244     -1.104668
Pb       8.12927      3.86575      8.73952        -0.107462     -0.229492     -0.436916
Pb       7.81577      0.14876      8.35904         0.096263      0.480753     -0.579130
Pb       7.78338      3.56444     12.70664         0.454353      1.551471     -0.253983
Pb       7.64848     15.44223     12.31979         1.427118     -0.103401      1.024866
Pb       8.00214      7.75279      4.04321        -0.643741     -1.655741      0.465452
Pb       7.99608      7.73720     16.41085        -1.628134      0.016120     -0.490478
Pb       7.85463      7.55117      8.12381        -0.368534      0.828878      0.416648
Pb       7.74123      7.59966     12.36657         0.976783      0.059497      0.676253
Pb       7.77878     11.73235      4.34472         0.342472      1.169122     -0.946644
Pb       7.60054     11.42301      0.01757         1.543968      0.250631     -0.763411
Pb       7.70675     11.88627      8.65517         1.282276     -0.337856     -0.873513
Pb       7.41710     11.81425     12.40149         2.411998     -0.965929      1.137703
Pb      11.81952      4.07246      4.08611         0.186056     -0.579166      1.794879
Pb      11.60741      3.80020      0.19582         0.926164      0.047530     -0.773534
Pb      11.41520      0.26118      3.79336         1.271781     -1.444389      1.474160
Pb      11.40389     15.46815     16.45373         1.129345      1.664176      1.553912
Pb      11.56937      3.65550      8.16056         0.506058      0.542299      1.854323
Pb      11.46002     15.50396      8.46766         1.271386      1.070663     -0.127281
Pb      11.76726      4.19416     12.52305        -0.182946     -0.555350      0.443350
Pb      11.83473      0.26092     12.52294        -0.975986     -3.054749      1.556119
Pb      11.92726      8.05036      3.87129        -0.698589     -0.473749      0.988970
Pb      11.23408      7.81721     16.55620         3.534255      0.536738     -0.224341
Pb      11.27051      7.83169      7.99017         1.513716     -0.292778      0.404025
Pb      11.81111      7.92910     12.24448        -0.641627     -0.910336      0.569212
Pb      11.63504     12.02193      4.33475         0.097920      0.121040     -0.630492
Pb      11.51308     11.84972      0.33007         0.441539     -1.738670     -1.055166
Pb      12.10587     11.49574      8.35908        -1.817217      0.449717      0.266613
Pb      11.77147     11.88486     12.54914         0.035963      0.043517      0.494071
Ti       1.92036      1.92540      1.99081         1.371516     -0.826026      0.546987
Ti       1.89016      1.89606     14.57082         1.164683      0.508717     -0.316305
Ti       2.12104     13.51500      2.24463        -2.814457      1.712208     -0.559996
Ti       2.02660     13.50201     14.74225        -0.025405     -1.459955     -0.749692
Ti      13.81013      1.84199      2.10078         0.315373      0.865437      1.909995
Ti      13.65111      1.82445     14.76390        -1.514923      0.378779     -0.117547
Ti      13.63585     13.75084      2.15856         0.606768     -0.407869      4.161576
Ti      13.79585     13.63964     14.89578        -0.139847     -1.041124     -1.771515
Ti       1.67847      1.78163      6.34303         3.098815      1.623910     -2.184859
Ti       2.05921     13.45980      6.26533        -0.068260      0.393808     -0.859930
Ti      13.51193      1.72110      6.42136         1.061171      0.822143     -1.530234
Ti      13.83204     13.57027      6.47311        -2.105690      2.017673     -0.833102
Ti       2.24478      1.80052     10.48681        -2.403900      1.463990      1.101925
Ti       1.83942     13.51784     10.22278         1.238599      2.130348     -1.179130
Ti      13.63775      1.83624     10.45431        -0.498965     -0.249872     -0.327688
Ti      13.68082     13.67075     10.41749        -0.283663      0.824714      1.152028
Ti       1.79347      6.01791      2.24543         1.110395     -4.736712     -2.470544
Ti       1.92825      5.98247     14.46416         1.970913     -1.413192      2.534162
Ti      13.66662      5.85649      2.00199         0.017899     -1.357765      0.230258
Ti      13.74606      5.71386     14.69580        -2.652454      1.052499     -0.118532
Ti       1.68920      5.59605      6.47700         3.565674      0.719422     -0.604389
Ti      13.52579      5.78125      6.54550        -1.978575      0.060123     -2.585673
Ti       2.17859      5.96616     10.73509        -2.776557     -3.078625     -2.201408
Ti      13.65535      5.74701     10.35229         0.992596      1.096855      1.575502
Ti       2.00281      9.70868      2.41121         0.306698     -0.539169     -0.396421
Ti       1.99177      9.64179     14.71513        -0.495064      1.510814     -2.015445
Ti      13.75068      9.76146      2.06311        -2.750196      1.168056      4.796603
Ti      13.67324      9.70610     14.60493         0.752854     -0.741198      1.674864
Ti       2.12376      9.69204      6.30243        -3.934115      0.118838     -0.781634
Ti      13.62757      9.77498      6.32984         1.390124     -2.714256     -1.066757
Ti       1.98374      9.55200     10.35417        -2.193925      2.321253      2.176533
Ti      13.62527      9.74372     10.54654         1.487594     -1.572738     -0.453309
Ti       5.87833      1.98082      2.09995        -2.695037      1.185161     -1.211573
Ti       5.65291      2.02432     14.65953         2.080346     -0.519029      1.057948
Ti       5.78872     13.65481      1.90217         0.301236      0.421441      1.422345
Ti       6.12779     13.69495     14.71081         0.143258      0.712300      0.179020
Ti       5.75582      1.86654      6.26140        -0.635440      3.748839      0.027233
Ti       5.99187     13.70338      6.23285        -0.791992     -0.842826      0.162290
Ti       5.87012      1.90042     10.60233        -0.270628      0.053997     -1.787208
Ti       5.81382     13.58069     10.42294         0.017375      0.931131     -1.365389
Ti       5.73490      5.71488      2.13391         2.180636      0.754826      0.534389
Ti       5.82345      5.92461     14.64012        -0.227511     -0.257920      0.326300
Ti       5.76700      5.86611      6.36254        -0.594840     -0.739516      0.441742
Ti       5.81495      5.81408     10.30275         1.619145     -0.185412      0.399980
Ti       6.04165      9.57671      2.14703        -1.476617     -1.720091     -2.282307
Ti       6.02034      9.64651     14.46779        -1.402043     -0.314105      1.016845
Ti       6.01949      9.90416      6.41536        -2.210600     -2.335024      0.315944
Ti       5.98798      9.73072     10.45546         0.047827     -0.187560     -1.523930
Ti       9.77430      1.99484      2.09959        -1.136804      1.093603      0.179310
Ti       9.62025      1.90953     14.72671         1.403774      0.166420     -0.846358
Ti       9.55148     13.60031      1.98967        -0.302839      0.027828      2.281150
Ti       9.88245     13.65043     14.67908        -1.029410     -1.544631     -3.044774
Ti       9.71957      2.05375      6.00947        -1.130221     -1.474185      0.728307
Ti       9.80259     13.73076      6.48015         0.313962      0.300841     -1.711053
Ti       9.80953      1.91862     10.78541         0.771334     -0.228245     -0.956085
Ti       9.95410     13.61186     10.41579        -2.253313      0.672615      2.453324
Ti       9.72556      5.82580      1.98668        -1.251039     -0.108842      5.385955
Ti       9.75191      5.66935     14.65583        -0.097956      1.044959     -2.064102
Ti       9.61635      5.69442      6.33338         3.500348      1.567563     -1.907975
Ti       9.65890      5.90814     10.61619         1.518283     -0.676380     -0.064106
Ti       9.69687      9.76544      2.08317         3.372811     -0.191885     -0.300893
Ti       9.90581      9.84185     14.38467        -0.630062      0.955297      0.427646
Ti       9.67597     10.06307      6.10720         1.495432     -1.868059      2.069987
Ti       9.74126      9.86422     10.42714         0.407881     -0.859517      2.603017
O       2.07898      1.80150      0.07327        -1.367667      0.853804      1.706702
O       2.02223      1.85710     12.60661        -1.170702     -0.189001      2.247183
O       1.92963     13.26368      0.47327         0.500089      0.752846     -0.782921
O       1.90578     13.43429     12.93141         0.015018      0.799733     -0.495882
O      13.63931      1.90079      0.32948         0.685408     -0.685199     -0.234374
O      13.53307      1.66893     12.90386         1.917066      0.902665      0.634994
O      14.02244     13.71076      0.47606        -1.122710     -0.242597     -0.370247
O      13.67112     13.73980     13.16027         0.071087     -0.021117     -2.025351
O       1.75320      2.06673      4.43103         0.443862     -1.169661      2.314569
O       2.10431     13.84688      4.37571        -0.586326     -0.481260      2.141967
O      13.45598      2.00351      4.47614         0.247777      0.170581      2.195989
O      13.55950     13.43161      4.58720         0.036502      0.356407      0.766459
O       2.31989      2.19954      8.78406        -0.925762     -1.057223     -0.767698
O       1.91374     13.31906      8.35725         0.023081      0.173743      1.531160
O      13.46803      1.79566      8.69909         0.496851      0.550377      0.095618
O      13.52408     13.69189      8.69285         0.674624     -1.283851     -1.525951
O       2.19550      5.80575      0.34289        -1.266729      0.722125      1.288005
O       2.02740      6.08713     12.70451        -0.268703     -0.824328     -1.164119
O      13.37739      5.82204      0.21976         0.964719     -0.109544      0.801262
O      13.91332      5.44262     12.83202        -0.967275      1.617648      1.174206
O       1.97905      5.67685      4.65878        -0.580397      0.329793     -0.686961
O      13.84133      5.74239      4.55105        -0.927225      0.068291      1.377017
O       1.91596      5.98402      8.68819         0.097511     -0.376212     -0.406266
O      13.48437      5.57452      8.55444         0.485210      1.380240      1.354047
O       1.93939      9.44168     16.50231        -0.044559      0.572405      3.199824
O       1.79202      9.80778     12.69155         0.501103      0.012095     -0.303159
O      13.89254      9.70655      0.42331        -0.297261      0.354621     -4.445010
O      13.66461      9.24805     12.90449         0.113200      1.642566     -1.896059
O       2.14496      9.26870      4.25923        -0.069403      2.076221      0.361494
O      13.75531      9.72681      4.34141        -0.734506     -0.345377      1.820924
O       1.92147      9.70638      8.55129        -0.803963      0.809140     -0.850995
O      13.85393      9.73364      8.71428        -0.713445      0.756995     -0.286088
O       5.62821      1.80248      0.23075         1.134970      0.711169      0.614209
O       5.74070      1.85806     12.75542         0.792201      0.054583      0.683063
O       5.68067     13.70425      0.10353         1.068888     -0.661765      1.743109
O       5.99789     13.44308     12.93001        -1.341556      1.183095     -1.620773
O       5.89177      1.93790      4.45445        -0.219367     -0.460469     -0.663243
O       6.10433     13.61807      4.38807        -0.484045      0.093181      1.793851
O       5.80553      1.79381      8.75407        -0.045900      0.201451      1.682475
O       5.97860     13.53444      8.47320        -1.088081     -0.024045      2.059620
O       5.94142      5.70656      0.38769        -0.117255     -0.087768     -1.261722
O       6.02436      6.05808     12.78917        -0.714679     -0.235957      0.214629
O       6.05568      5.93092      4.64609        -0.383800     -0.337901     -0.880955
O       5.86161      5.57636      8.53458         0.407524      0.715719      1.090830
O       6.04920      9.66574      0.26828        -0.333893      0.152786      1.340647
O       5.94371      9.75663     12.68582         0.158881     -0.458698     -1.414597
O       5.75935      9.49860      4.65094        -0.011875      0.909911     -1.672372
O       5.84733      9.88654      8.50089         0.300042      0.505080      1.477122
O       9.72871      1.74035      0.31841         0.349980     -0.077215     -1.203328
O       9.79529      2.24231     12.81037        -0.478908     -0.655308      1.964391
O       9.77254     13.42397      0.22691        -0.440338      0.950121      0.652630
O      10.12564     13.47958     12.79694        -0.876490      0.248670      1.521034
O       9.78784      2.20465      4.12483        -0.677741     -0.389102      1.825403
O       9.61637     13.46856      4.61385         0.361425      0.203103      0.193510
O       9.98910      1.85803      8.90996        -1.500958      0.053992      0.521644
O       9.67717     13.98359      8.68617        -0.286089     -0.003879     -1.009755
O      10.02749      5.80069      0.34391        -0.519556      0.960470     -3.632879
O       9.37777      5.68776     12.74550         0.913296     -0.204094      0.898017
O       9.51622      5.54371      4.53452         0.657130      0.205598     -0.282408
O       9.77234      5.64990      8.73159        -0.346090      0.837413     -0.515134
O      10.07442      9.86063      0.27160        -1.553590     -0.058612      0.285552
O       9.86623      9.95876     12.56942         0.289448     -0.145935      2.152201
O       9.45762      9.92062      4.35653         0.856109     -0.195791      0.192156
O       9.75515      9.79433      8.74576        -0.017851     -0.600886     -2.716784
O       3.87164      2.04714      2.18273        -0.914757     -0.026619      0.804615
O       3.91064      1.72965     14.86167        -0.908826      0.794716     -1.265794
O       3.87232     13.65551      2.55954         4.376079     -0.319047     -0.487596
O       3.97953     13.60768     14.92789        -0.056743      0.128139     -0.725903
O      15.58160      1.72419      2.67876         0.262029      0.288491     -2.098241
O      15.56767      2.13076     14.68963         1.133994     -0.750279     -0.032731
O       0.18247     13.71110      2.64664        -2.450980      0.125028     -0.355450
O       0.18797     13.67438     15.20060        -0.073427     -1.069020     -0.231938
O       3.74767      1.70587      6.53806         1.463089     -0.084638     -0.408428
O       3.93710     13.81440      6.34411         1.315466     -0.510658      0.208991
O       0.03600      2.15018      7.06057        -0.974364     -1.025574     -1.022889
O      15.53988     13.40083      6.38537         1.980636     -0.368011      0.212728
O       3.89156      1.85180     11.14839         2.737697     -0.081485     -1.390754
O       3.80371     13.31096     10.65743         0.728349      1.660279     -0.681181
O       0.01972      1.55061     10.56000        -0.170592      1.591867      0.896054
O      15.58072     13.58901     10.55982        -0.663574      0.899270     -0.052875
O       3.96785      5.60031      2.34575        -2.077017      0.471340      1.003845
O       3.94634      5.90206     14.77264         0.086682      0.012997     -0.392499
O       0.00346      5.99348      2.53019        -0.376074     -0.253445     -0.809924
O      15.50048      5.75695     15.07161         1.865127      0.206605     -0.550098
O       3.84102      5.88467      6.61081         0.906697     -0.498174      0.025740
O      15.50331      5.81356      6.73901        -0.391513     -0.422911      0.009464
O       4.02893      6.04330     10.76590        -0.009582      0.036476     -0.198636
O      15.60271      5.83176     10.72146        -1.154617     -0.508720     -0.391881
O       3.81474      9.42973      1.77848        -0.445955      2.670973      2.575469
O       4.08845      9.72582     14.53532         0.084399     -0.354256      1.121485
O      15.55758      9.57751      2.35266         3.697546      0.158924      0.149960
O       0.08829      9.47917     14.75790        -1.583438      0.951756      0.172786
O       3.76414      9.63777      6.75581         2.242247      0.859141     -0.907423
O      15.56444      9.60522      6.43163         0.185448      0.568775      0.040085
O       3.74847      9.81989     10.73168         1.483535      0.024366     -0.830440
O      15.52958      9.93469     10.87785         0.354813     -0.630776     -1.253517
O       7.77298      1.93803      1.98819         0.214071      0.491426      0.901124
O       7.87805      2.08971     15.12937        -1.237541     -0.357244     -0.864159
O       7.62601     13.60798      2.24581         0.553551     -0.847529     -0.645650
O       7.98321     13.49550     14.69624        -1.651323      0.542775      0.459872
O       7.70996      2.05239      6.54688         2.485885     -0.508906     -0.252297
O       7.94342     13.42748      6.78882        -2.440450      0.628399     -0.825861
O       7.78377      1.89821     10.83132        -0.808509     -0.064758     -0.197806
O       7.76606     13.64973     10.64444        -0.544180     -0.590970      0.311930
O       7.85690      5.78508      2.64997         0.804092      0.214824     -1.786894
O       7.89349      5.95225     14.89287        -1.162882     -0.262350      0.731060
O       7.90098      5.84257      6.58039        -3.798329     -0.498828      1.109816
O       7.81399      5.83900     10.54328        -2.816342      0.408007     -0.102372
O       7.88704      9.74049      2.06502        -1.933828     -0.799679      1.025328
O       7.96184      9.67792     14.75527         0.503981     -0.376386      0.281579
O       7.77397     10.15989      6.41585         1.430704     -0.271963      0.481915
O       7.78686      9.78128     10.70079         0.013711      0.397947     -0.494662
O      11.61609      2.02323      2.30293         1.102966     -0.350781     -0.434112
O      11.64896      1.63068     15.08464         0.490818      0.525026     -0.905682
O      11.60666     13.66105      2.51529         0.173706     -0.061502     -1.094625
O      11.83924     13.77023     15.14145        -0.952097     -0.684542     -0.327272
O      11.71037      1.84362      6.69005        -0.945136     -0.281651     -0.986005
O      11.64505     13.73867      6.85383         0.240334     -0.107943     -0.951955
O      11.76931      1.65681     10.92772        -0.476449      2.847027     -1.404412
O      11.64609     13.83020     10.68399         2.511245     -0.979464     -0.086507
O      11.83542      5.43237      2.41919        -0.502288      2.122941     -1.046454
O      11.60158      5.91670     14.63286         0.996014     -1.283167     -0.283263
O      11.52824      5.94563      6.26929         2.138710      0.081345      1.216694
O      11.63908      5.80824     10.93651         1.405208      0.165149     -0.534479
O      11.70729      9.73544      2.30143         0.966896     -0.217741      0.533938
O      11.85707      9.81400     14.93457        -2.351265      0.250602     -0.738583
O      11.64574      9.53086      6.45015        -0.852071      1.596429     -0.240452
O      11.78481      9.74904     10.71717        -1.236313     -0.600324     -0.178309
O       1.96653      3.91017      2.42249        -1.352838     -1.142440     -1.022643
O       2.07457      3.97659     15.01828        -0.653601     -1.197297     -1.090296
O       2.08459      0.00496      2.50640        -0.530173      1.150632     -0.965829
O       1.91837      0.01854     14.71050        -0.099536      0.057857      0.117953
O      14.07995      3.89350      2.23782        -1.182343     -0.401979      0.080798
O      13.50948      3.73318     14.84879         0.205693      0.468318      0.481770
O      13.59412      0.01777      2.90734        -0.088559     -1.252587     -2.507748
O      14.09870     15.48474     15.07694        -1.259500      3.080044     -0.171275
O       2.15964      3.67426      6.61816        -1.256417      2.184888      0.316490
O       1.92209     15.45897      6.61073        -1.088038      1.329760      0.016972
O      13.40341      3.89722      6.83065         1.220963     -0.238932     -1.555415
O      14.05853     15.56659      6.67011        -1.286887      0.080787     -0.571806
O       2.05623      4.15606     10.62933         0.428708     -1.108818      0.795339
O       2.10253     15.57217     10.35186         0.321962     -1.445452      0.722675
O      13.79130      3.77499     10.91719        -1.173374     -0.442688     -1.560226
O      13.51312     15.50951     10.63465         1.106676     -0.363502      0.733649
O       2.12209      7.67233      2.39032        -0.093663      3.243534     -0.027786
O       1.99609      7.75531     14.62888         0.146427     -1.054556      0.146614
O      13.78031      7.75788      2.45402        -1.097932     -0.239356     -0.686041
O      13.53431      7.82034     15.04581         0.949189     -1.224357      0.093848
O       1.97571      7.65916      6.51937        -0.536194      1.197948     -0.205107
O      13.49400      7.87842      6.74918         0.877650     -1.638195     -0.228856
O       1.77665      7.87026     10.63106         0.164365     -1.291660      0.262832
O      13.81165      7.68049     10.72991        -1.107100     -0.188532     -0.301983
O       1.98966     11.76261      2.66124         0.100705     -4.651972     -0.016008
O       2.20403     11.59672     14.80254        -0.589892      0.530479      0.634966
O      13.86277     11.71227      2.55125        -0.977848      0.769937     -1.830453
O      13.73311     11.78837     14.91524         0.591698     -2.078753      0.762168
O       2.11559     11.67363      6.09423        -0.019445     -2.027693      0.311087
O      13.46568     11.58353      6.48513         0.203497      1.254148      0.681265
O       1.59033     11.84304     10.71084         1.477778     -2.687478     -0.224161
O      13.49529     11.60251     10.85429         0.557294      2.081154     -0.586299
O       5.93605      3.88351      2.48322         0.416383     -1.679500      0.074166
O       5.87423      3.91324     14.65711        -0.312909     -0.733156      0.042263
O       5.87598      0.09121      2.42832        -0.734676     -1.874011     -0.949259
O       6.07356      0.02835     14.87039        -0.601175     -0.948247     -0.637287
O       5.83386      3.71201      6.48072        -0.794978      1.380186      0.291408
O       5.97483      0.00676      6.55318         0.559616     -2.335713     -0.072833
O       5.63599      3.90996     10.85082         1.296519     -0.287908     -1.254073
O       5.92420     15.44055     10.80622        -1.465060      0.444105     -0.296510
O       5.67195      7.63441      2.40094         1.243708      2.773643      0.172233
O       5.92543      7.78299     15.18163         0.566946      0.204143     -1.338538
O       5.80759      7.76988      6.71539         0.782682      0.120391      0.238068
O       5.80685      7.94765     10.48211         0.238075     -2.015865      0.428164
O       5.93022     11.61216      2.26305        -0.758157     -0.096461     -0.056345
O       6.11354     11.54729     14.86794        -0.641861      0.640644      0.236047
O       5.53930     11.66006      6.51221         0.505865      1.742537     -0.660161
O       5.81209     11.66871     10.71272         0.074618      0.684479     -0.562951
O       9.77027      3.91085      1.80871        -0.450199     -1.617369      1.441929
O       9.66191      3.88597     15.26386         1.026353     -0.851472     -0.799153
O       9.22663     15.46972      2.24842         2.612748      0.052681      0.429745
O       9.49236     15.57188     14.82487         1.169842      0.184630      0.526528
O       9.91451      3.88078      6.59741        -0.822220     -2.218634     -0.071986
O       9.72762      0.25248      6.43236        -0.296101     -1.038215      0.089164
O       9.60235      3.94469     10.75611         0.161356     -1.454799      0.006217
O       9.84446      0.02951     11.17147        -1.684135      0.070699     -1.164480
O       9.79813      7.73484      2.44663         0.327639      0.143002     -0.332177
O       9.80109      7.67084     14.90255        -0.394815      1.862557     -0.714937
O       9.59860      7.82907      6.52158        -1.048947      0.694687     -0.278103
O       9.67161      7.80553     10.88705         0.359417      0.143892     -0.750788
O       9.79865     11.53944      2.40620        -0.423291      3.040619     -0.340312
O       9.71166     11.74574     14.91945         1.485756     -1.627598     -0.379054
O       9.90814     11.81661      6.66511         0.244315     -1.553878     -0.314446
O       9.87696     11.77152     10.39883        -0.159233     -0.001038      0.509099
