  # total energy = -7841.62635918 
CRSYTAL
PRIMVEC
    15.6080000000000005    0.0000000000000000    0.0000000000000000
     0.0000000000000000   15.6080000000000005    0.0000000000000000
     0.0000000000000000    0.0000000000000000   16.6239999999999988
PRESSURE
3.81327 3.87117 2.54602 -0.202236 0.151414 0.074047
PRIMCOORD
320 1
Pb       3.51600      3.97683      4.06235         0.917920     -2.173209      1.604445
Pb       3.76582      3.97392      0.24166        -0.169414      0.352083     -0.705470
Pb       3.67021      0.01578      4.22013         1.149905      0.267479     -0.816492
Pb       3.91440     15.45765     16.26785         0.030110      1.163442      0.785000
Pb      15.42951      3.95707      4.12212         1.065518     -0.246139      0.784217
Pb       0.10818      3.73092     16.41046         0.017999      0.054950     -0.075076
Pb       0.18879     15.40763      4.30391        -1.451831      1.018397     -0.357509
Pb       0.08383     15.38425      0.06023        -0.125957      0.830010     -0.295697
Pb       3.93794      3.93756      8.34776        -0.382062      0.213629      0.676891
Pb       3.89804     15.51873      7.90777         0.291230      1.461030      1.958022
Pb      15.59281      4.00574      8.38186         0.085469     -0.579001      0.730987
Pb       0.23383      0.30801      8.63089        -1.215210     -0.316717     -1.632596
Pb       4.19931      3.79500     12.48402        -1.387487      1.591893      0.344175
Pb       3.90298     15.41846     12.38318        -0.467087     -0.235443      1.291116
Pb      15.46325      3.77602     12.40005         0.086495      0.209543     -0.286957
Pb       0.11237      0.28674     12.59194        -0.530534     -1.593172      0.970206
Pb       3.75741      7.61905      4.31157         0.164795      0.007293      0.020794
Pb       3.79810      7.92195      0.08085        -0.586447     -0.367040     -0.069042
Pb      15.35703      8.04498      4.30574         1.466726     -1.414672      0.279043
Pb      15.40720      7.85279      0.28608         0.490649      0.951184     -1.446313
Pb       3.66095      7.87008      8.12521        -0.202241     -1.523731      0.914970
Pb      15.52450      7.55989      8.40605         1.765189      0.524945     -0.189587
Pb       4.08224      7.97232     12.30829        -0.732297     -1.148712     -0.058212
Pb       0.02464      7.71956     12.68235         0.910669      0.774676      0.109789
Pb       4.16739     11.44381      3.81269        -0.485194      0.300658      0.704823
Pb       4.16634     11.54699     16.36520        -0.331985      0.254028      0.257137
Pb      15.33691     11.74862      4.34805         1.234977      0.332332     -0.126702
Pb      15.59875     11.65268      0.20071         0.742337     -0.492174     -0.689947
Pb       4.16673     11.67162      8.53090        -0.988951     -0.079813     -1.253604
Pb       0.04982     11.43889      8.72297        -0.098861     -0.277636     -1.559116
Pb       3.52564     11.69181     12.23689         1.193328     -0.413199      0.936488
Pb       0.02258     11.63938     12.43223         0.085139      0.269691      0.629348
Pb       7.72609      3.93893      4.44353        -1.123091      0.795272     -0.683253
Pb       7.88654      3.73214      0.24306        -0.662375      0.705352     -1.264874
Pb       7.31269      0.16902      4.05606         1.469944     -0.940807      0.598713
Pb       7.90618      0.25042      0.25496        -1.124147     -0.563952     -1.440330
Pb       8.12467      3.87465      8.74976        -0.643552     -0.212379     -0.883399
Pb       7.83272      0.17790      8.36355         0.810121      0.510646     -1.052868
Pb       7.81577      3.56814     12.70126        -0.127916      1.258967      0.124806
Pb       7.61500     15.36487     12.34237         0.983272      0.821950      1.489936
Pb       7.95986      7.74323      3.99748        -0.255764     -0.336160      0.985118
Pb       7.98767      7.76663     16.38084        -0.268046      1.018807     -0.000539
Pb       7.87596      7.55971      8.13400        -0.510317      0.932599      0.856433
Pb       7.71525      7.61373     12.42916        -0.163701      0.687381      0.232142
Pb       7.72328     11.77603      4.33568         0.737218      0.039513     -0.644068
Pb       7.57340     11.38142      0.00726         1.171255      0.422639     -1.026784
Pb       7.61590     11.91207      8.66277         2.595092     -1.591331     -0.632993
Pb       7.49765     11.90562     12.43879         1.528138     -2.295986      2.490969
Pb      11.89362      4.10740      4.03776        -0.102439     -1.134646      1.901884
Pb      11.65713      3.80443      0.19054         0.993532     -0.192329     -0.752523
Pb      11.45616      0.25014      3.80321         1.590070     -1.908780      0.749378
Pb      11.49276     15.47733     16.50498         0.600493      1.070480      0.680434
Pb      11.56626      3.70865      8.16570        -0.375887     -0.155820      2.457366
Pb      11.41928     15.56365      8.43143         1.168186      0.868663     -0.677489
Pb      11.78195      4.17223     12.55544        -0.135721     -1.487505      0.515124
Pb      11.81808      0.25176     12.44756        -0.404232     -0.911643      0.615058
Pb      11.91680      8.02104      3.89169        -1.005096     -1.262233      0.832189
Pb      11.31037      7.77869     16.54138         2.871371      1.063807     -0.020806
Pb      11.27631      7.83892      8.00173         0.391401      0.508010      0.675185
Pb      11.83671      7.90125     12.21904        -1.790652     -0.050930      1.862680
Pb      11.64556     11.95731      4.34326        -0.854086      0.739386     -0.307796
Pb      11.53748     11.81514      0.33901        -0.192114     -0.626189     -1.098875
Pb      12.08295     11.38560      8.30098        -1.939517      1.124002      0.654674
Pb      11.70030     11.83565     12.47934        -0.150239     -0.656487      0.136701
Ti       1.93682      1.95593      2.04658        -0.162463     -0.548228     -2.310771
Ti       1.88960      1.95356     14.52332         2.027918     -0.402373      2.571406
Ti       2.05904     13.69255      2.13225         0.386794     -1.396001      1.730527
Ti       2.02526     13.44949     14.72654        -0.482059      0.747938     -0.472422
Ti      13.77401      1.96647      2.17874         0.688762     -3.062511     -0.468770
Ti      13.57149      1.78890     14.78607         0.150741      1.825980     -0.729628
Ti      13.67391     13.69126      2.20773        -0.109467      1.754170     -0.354455
Ti      13.72137     13.58432     14.79944         0.947963      0.128169     -0.531785
Ti       1.82029      1.82731      6.28855        -0.427395      1.130666      2.103024
Ti       2.12552     13.50962      6.20996        -1.566469     -1.866350      3.158853
Ti      13.47486      1.78831      6.40490         1.613948      0.369030      0.038180
Ti      13.83259     13.61927      6.42784         0.188960      1.408933      1.356098
Ti       2.17568      1.79430     10.52669         0.299296      1.866805      0.777688
Ti       1.77805     13.51658     10.16324         1.234043      0.622804      3.207406
Ti      13.61362      1.76581     10.40297        -0.344608      1.661694      0.429801
Ti      13.62394     13.65496     10.46141         0.661652     -0.218176     -0.858219
Ti       1.83292      5.91841      2.22229         0.749184      0.161229      0.122830
Ti       1.98269      5.86195     14.50712         1.478334      0.547321      0.987437
Ti      13.72581      5.78713      1.94395        -0.878276      0.298103      1.405724
Ti      13.71201      5.71452     14.63399        -0.405525      0.711263      2.052604
Ti       1.78973      5.47576      6.39242         1.582773      3.141332      0.300182
Ti      13.52128      5.88942      6.52018         0.208372     -0.368493      2.690880
Ti       1.96174      5.94340     10.77404         1.668324     -1.381938     -1.756780
Ti      13.59529      5.86013     10.37917         0.854615     -1.975995      3.097071
Ti       1.99409      9.68372      2.48976         0.726374      0.822027     -2.111052
Ti       1.96623      9.65914     14.65353        -1.120126     -0.930190     -0.227853
Ti      13.66036      9.87619      2.25254         1.059583     -0.217880     -2.261828
Ti      13.68065      9.82300     14.64487         0.002333     -1.380590      1.664756
Ti       2.15971      9.74080      6.22469        -0.630350     -0.691554      1.362109
Ti      13.66314      9.73704      6.33838         0.788622     -0.337152     -0.280798
Ti       1.91103      9.66983     10.37859         0.602359     -2.225448     -0.548039
Ti      13.70838      9.72376     10.65840         0.113344     -0.016820     -1.653542
Ti       5.82562      2.00105      2.04077        -2.038708     -0.548554      0.416398
Ti       5.62977      2.08036     14.63706         2.489122     -0.738933      0.928468
Ti       5.92028     13.63881      2.00477        -1.603718     -1.276736     -0.959047
Ti       6.13732     13.76726     14.77287        -1.296958     -0.670620     -1.034304
Ti       5.69686      1.96412      6.23449         0.604050      0.464223     -0.312375
Ti       5.98055     13.65022      6.22757        -0.822596     -1.148140      3.324034
Ti       5.87802      1.94114     10.63281        -0.112504     -0.290433     -0.254894
Ti       5.82469     13.64099     10.49588        -1.246751     -0.471833      0.543415
Ti       5.87813      5.70962      2.20993         0.032547     -0.191733     -1.422310
Ti       5.94004      5.90262     14.81612        -1.370727     -0.146894     -1.844336
Ti       5.70045      5.78581      6.40664         1.159800      0.632661      0.517777
Ti       5.88725      5.74016     10.32338        -2.957276      2.935549     -0.374223
Ti       6.04459      9.50031      2.18673        -2.167236      1.175204     -0.443882
Ti       5.80718      9.67223     14.41918         2.913697      1.137528      0.064322
Ti       5.98898      9.79435      6.46763        -0.380268     -0.426367     -1.855801
Ti       5.95692      9.72174     10.33545         1.399813     -1.597546      4.006074
Ti       9.76072      2.05946      2.12807        -0.252061     -1.102746      0.788607
Ti       9.68008      1.89773     14.70714         0.961842     -0.836360     -0.493647
Ti       9.50858     13.59681      1.86019         0.800074     -2.676439      1.620585
Ti       9.84038     13.59126     14.57580        -2.069755     -0.578076      2.780149
Ti       9.70633      2.10861      5.97848        -0.799919     -4.689651      4.854144
Ti       9.78979     13.70567      6.43912         0.023603      0.220645     -1.241623
Ti       9.82208      1.99674     10.79365        -0.785823     -1.195092     -1.599484
Ti       9.92677     13.65273     10.42039        -0.058106      1.169017      0.180855
Ti       9.75800      5.79072      2.01680         0.013366      0.244217      0.047813
Ti       9.75506      5.67048     14.68778         0.312379      0.688957     -0.852256
Ti       9.72772      5.68155      6.32990        -0.870903      2.307594      0.164510
Ti       9.66684      5.86195     10.60051         0.199113      0.328094      0.010731
Ti       9.76161      9.86772      2.08827        -0.399221      0.468102      0.212938
Ti       9.84731      9.91973     14.44247        -2.213335     -1.591731     -0.143190
Ti       9.70408     10.05894      6.17314        -0.050353     -1.701074      2.024118
Ti       9.78439      9.82413     10.43581        -1.773001     -0.493040     -0.935435
O       1.99384      1.97726      0.12771        -0.383031      0.072554      1.992630
O       1.93349      2.01851     12.79216         0.033818     -0.397231     -3.476347
O       1.81827     13.41216      0.42429         1.132797      0.962315      0.174340
O       1.99193     13.59275     12.96050        -0.232683     -1.044340     -0.623934
O      13.73472      1.66262      0.42685         0.030419      0.616565     -0.535661
O      13.65177      1.90074     12.91474         0.471981     -0.468561     -0.617216
O      13.97553     13.64049      0.34651        -1.348257      0.360322      1.391331
O      13.66206     13.57570     13.02214        -0.113427      0.063359     -0.785227
O       1.76650      2.00129      4.61025         0.023133     -0.163426     -3.078137
O       2.07085     13.93425      4.58359         0.346013     -0.727393     -3.353170
O      13.45558      1.91117      4.57508         0.569391      0.431019      0.140324
O      13.49231     13.39246      4.69266         0.018522      0.977447     -1.817212
O       2.23277      2.07289      8.80598        -0.756683     -1.326154     -0.270067
O       1.77294     13.22884      8.49321         0.686325      1.093300     -1.458673
O      13.68119      1.78430      8.66314        -0.014431      0.150650      0.185653
O      13.44246     13.48295      8.71482         1.742628      0.123221     -0.976588
O       2.23772      5.83955      0.43258        -0.677503      0.127879      0.509153
O       1.98469      6.05774     12.70178        -0.628418     -1.101851      0.144907
O      13.20640      5.75548      0.33232         1.377413     -0.105843     -1.335267
O      13.74001      5.41564     12.88854         0.615640      1.679815     -0.524975
O       2.09658      5.76939      4.31430        -1.144087     -0.486699      1.468136
O      13.85874      5.56004      4.93374        -0.304054     -0.645834     -5.732691
O       1.89092      6.04907      8.56838        -0.093363     -0.541680     -1.633949
O      13.46948      5.76745      8.69820         0.183408      0.549393     -2.116687
O       1.82382      9.59798      0.08763         0.452001     -0.628580      0.397006
O       1.90773      9.50041     12.70001        -0.344436      1.846464      0.845111
O      13.99845      9.88592      0.33359        -0.930658     -0.906289      1.744988
O      13.66696      9.36845     12.87183         0.032335      1.656513     -1.190306
O       2.18533      9.44133      4.31085        -0.047560      0.575715      1.540738
O      13.64843      9.61160      4.34834        -0.560014      0.724165      0.273986
O       1.86076      9.68763      8.26748        -0.557477      0.350866      2.939458
O      13.89977      9.87931      8.79548        -0.999622     -1.380423     -0.819053
O       5.79263      1.81872      0.24851         0.365664      0.616991     -0.356490
O       5.79603      1.95947     12.82829         0.242186      0.110355     -0.326125
O       5.92236     13.72012      0.16921         0.396615     -0.194375      0.933602
O       6.07599     13.67726     12.84424        -2.452923     -0.270141     -0.976229
O       5.76210      1.81924      4.41566         0.252603      0.188470      0.325816
O       6.15947     13.57038      4.55776        -0.380719      0.437492     -3.267725
O       5.74416      1.82444      8.89817         0.473040      0.051445     -1.598927
O       6.06442     13.47053      8.68312        -2.153970      1.210605      0.596042
O       5.78021      5.57708      0.20519         0.191569      0.251898      2.491120
O       6.03754      5.98865     12.84275        -0.653622     -0.074587      0.869007
O       6.25369      5.99458      4.66287        -0.916950     -0.901695     -0.203033
O       5.76652      5.56698      8.51744        -0.054520      0.405895     -0.198206
O       5.95514      9.82902      0.43676        -0.923930     -1.371561     -1.098452
O       5.87723      9.63507     12.63935         0.252040     -0.370503      0.005858
O       5.80688      9.55378      4.49557         0.676168      0.306810      0.347707
O       5.97751     10.02153      8.63720        -0.482954      0.038725     -2.416666
O       9.68635      1.73712      0.41196         0.933732     -0.950013     -1.292755
O       9.76313      2.09332     12.87070         0.046207      0.199294      0.872297
O       9.46885     13.11841      0.11328         1.131354      2.301192      0.650652
O      10.09741     13.42260     12.91980         0.167196      0.202269     -3.790072
O       9.78979      2.09328      4.27908         0.082750     -0.057551     -3.146573
O       9.67107     13.35331      4.50299         0.120851      0.801847      1.424158
O       9.84266      2.01145      8.87045        -1.420746     -0.714398      0.450069
O       9.71115     14.09242      8.62324        -1.474287     -1.468620      1.383010
O      10.07122      5.85571      0.12582        -1.184889     -0.830274      2.887877
O       9.39402      5.58841     12.86832         0.371677      0.018906     -0.519586
O       9.63345      5.50342      4.59392         0.281921      0.305235     -0.863245
O       9.79667      5.65743      8.70029         0.074691      0.452196      0.794313
O       9.88583      9.80499      0.28175        -0.059218     -0.334155      1.007303
O       9.81156      9.91339     12.64513         0.896894      0.245895     -1.035896
O       9.46964      9.79752      4.39700         1.210975      0.200837     -0.769285
O       9.86205      9.87757      8.55794        -0.410104     -0.905435      1.935416
O       3.87300      2.07447      2.15160         0.349539     -0.567956      0.842972
O       3.91679      1.86592     14.75103        -0.931146      0.299773      0.353052
O       4.03965     13.54622      2.45327        -2.530866      0.097700     -0.075359
O       4.09339     13.63808     15.00927        -2.027141     -1.130800     -0.719141
O       0.02250      1.66177      2.32950         1.013261      0.558195      0.478532
O       0.16507      1.91366     14.76339        -2.776224      0.673778      0.443262
O      15.57084     13.82351      2.67279         1.178139     -1.451084     -0.526466
O       0.09507     13.55039     15.10765         0.476046     -0.080429     -0.794650
O       3.83062      1.81954      6.41094         0.899206     -0.629034      0.642583
O       4.00263     13.84113      6.56409        -0.940282     -1.528235     -0.800049
O       0.02736      2.15694      6.94037        -0.182772     -0.998716     -0.619911
O       0.14049     13.45443      6.28687        -1.305420     -0.141982      0.117522
O       4.02905      2.00919     10.96786        -2.427010     -0.960555     -0.133514
O       3.81079     13.29177     10.51621         0.066791      0.464706      0.055832
O      15.59797      1.48446     10.67519         0.809079      1.971163     -0.334988
O      15.52427     13.58790     10.67999         1.011919      0.117717     -0.097097
O       4.05741      5.45900      2.66453         0.823537      2.629869     -2.261473
O       3.83571      6.15799     14.93006         0.908824     -1.324344     -0.515967
O      15.59431      5.86740      2.51352         0.081747     -0.414701     -0.760715
O      15.57923      5.79962     15.05291        -0.404640     -0.047334     -0.454237
O       3.80707      5.75927      6.50033         1.083012      0.150318     -0.220951
O      15.58350      5.60012      6.56609         0.264773      0.158186      0.987245
O       3.78903      6.09504     10.57837         1.931994      0.016774      0.298253
O       0.16728      5.82912     10.43824        -4.363983      0.252237      0.555603
O       3.89898      9.42566      2.11863         0.387580      1.173000      1.240419
O       4.02276      9.90424     14.44815        -1.538028     -1.044074      1.575173
O       0.11553      9.53962      2.58139        -2.030909      0.382704     -0.500284
O       0.01280      9.76460     14.70158        -0.833135     -0.211042     -0.216682
O       3.95538      9.67074      6.70399         0.246331     -0.089347     -0.819076
O      15.45897      9.60548      6.37542         0.486643      0.996368     -0.403009
O       3.73020      9.81692     10.68836         1.944062      0.320743     -0.812121
O       0.06587      9.74306     10.64370        -2.840037     -0.066971      0.591354
O       7.80238      2.12111      2.07315        -0.199400     -2.021353      1.218643
O       7.91897      2.05801     15.06366        -1.840175      0.041597     -0.367963
O       7.67992     13.37031      2.30901         1.092941      0.041652      0.334325
O       7.86371     13.51053     14.50391         1.959162      0.378911      0.926631
O       7.88162      2.01665      6.41684        -0.530821     -0.028832     -0.181957
O       7.68762     13.23334      6.75484         1.569121      1.168512     -0.897677
O       7.71628      1.82862     11.05095         0.146041      0.475397     -1.315375
O       7.65478     13.45796     10.85643         2.248387      2.103952     -1.653659
O       7.91647      5.62557      2.64773         0.130812      0.404965     -1.620818
O       7.84391      5.85018     15.02415        -0.306252     -0.841833      0.452310
O       7.82480      5.67743      6.90089         0.954201     -1.081775     -1.196556
O       7.63220      5.74976     10.52456         3.547862     -0.019074      0.266876
O       7.86331      9.84298      2.12750         0.616984     -1.124172      1.144498
O       7.92763      9.80611     14.82424        -0.399316     -1.165248      0.620556
O       7.90152     10.05852      6.62603        -2.057425     -0.424638     -0.159156
O       7.83535      9.81378     10.74228        -0.002472      0.244516     -0.975426
O      11.83397      1.96319      2.29004        -2.094587      0.184261      0.392927
O      11.72654      1.72371     15.00395        -0.533181     -0.857602      0.139973
O      11.57295     13.63899      2.32424         0.804378     -0.176557     -0.440380
O      11.76641     13.82344     15.02735         0.578767     -0.936804      0.081909
O      11.73160      1.58241      6.69887        -1.311820      1.403641     -0.748836
O      11.55661     13.73255      6.78462         0.782922      0.058022     -0.897655
O      11.62355      1.83303     10.72953         2.310363      0.700516      0.468044
O      11.78852     13.83026     10.50822        -2.461474     -0.835993      1.571392
O      11.71884      5.49200      2.38983         0.454809      1.057470     -0.179711
O      11.56604      5.63005     14.53962         1.810811     -0.158929      0.207290
O      11.75147      5.98672      6.40471        -3.383185     -0.308435      0.365393
O      11.57311      5.84265     11.06491         0.494292      0.331214     -1.552610
O      11.76792      9.63940      2.30896         0.455478      0.555215      0.136700
O      11.60722      9.86985     14.83610         3.696451     -0.575347      0.237539
O      11.56368      9.69234      6.64744         1.578095     -0.409404     -1.161307
O      11.68697      9.56317     10.53333         1.480348      0.029717      0.777139
O       1.99405      3.82417      2.24958        -1.020567      0.380641      0.543582
O       1.79635      3.96309     14.81455         1.102869     -0.186408      0.024578
O       2.08929      0.02594      2.54149        -0.026441     -0.921565     -0.641384
O       2.07183     15.59789     14.65791        -0.067146     -0.728504      1.070137
O      14.08030      3.77789      2.34222        -1.740756      1.964982     -0.055415
O      13.53295      3.70904     14.89992         0.913983      1.373887      1.112999
O      13.69113     15.46874      2.72400        -1.247720      0.466132     -0.439797
O      14.13558      0.11341     14.98778        -1.085693     -3.344341     -0.139787
O       2.06080      3.71879      6.66210        -0.212903      1.648294      0.049383
O       1.76995      0.00468      6.46074         0.881770     -1.242278      1.398160
O      13.25902      3.80829      6.90621         2.407790     -0.233419     -1.856766
O      13.89016     15.47420      6.71541        -0.064643      0.419332     -0.393113
O       2.09383      4.07398     10.61090        -0.267329     -2.328383      0.704273
O       2.14806     15.38106     10.65675        -0.312140      1.231859     -0.506442
O      13.64211      3.88348     10.89984         0.291449     -0.437333     -1.395459
O      13.51067     15.56981     10.72187         0.664935     -0.405369      0.438333
O       2.06640      7.75037      2.42254        -0.306499     -1.904407     -0.414635
O       1.96941      7.72658     14.63762        -0.839101      1.227027      1.102813
O      13.79820      7.68725      2.35696        -1.197476     -0.104459      0.125934
O      13.61601      7.66294     15.16234        -0.019469      0.266372     -0.886736
O       2.00593      7.80527      6.46153        -0.142222     -0.597758     -0.639531
O      13.62453      7.84290      6.56457        -0.204376     -0.679734      0.343375
O       1.82374      7.92095     10.87436        -0.103423     -0.330055     -1.344302
O      13.71475      7.63794     10.91340         0.173041      0.742622     -0.962415
O       1.81635     11.58105      2.67953         0.755477      1.227346     -0.696829
O       2.06130     11.54264     14.97979         0.009596      1.775786     -0.705232
O      13.76313     11.74416      2.38801        -0.217055     -1.168907      0.375506
O      13.79438     11.67978     14.94281        -0.727276      0.123565     -0.306961
O       2.07214     11.57229      6.32668         0.080911      1.573408     -0.667057
O      13.50488     11.67251      6.37096         0.125112     -1.626877      1.168921
O       1.65753     11.56773     10.69218         0.665089      1.871533      0.024871
O      13.60954     11.60296     10.62816         0.068111      0.271372      1.663604
O       5.94492      3.74968      2.52742         0.128152      1.165663     -0.257055
O       5.71675      4.00018     14.60000         0.203621     -1.335080      0.729835
O       5.72579     15.46003      2.45087         0.931709      1.663765     -0.145947
O       5.97514     15.59116     14.70139        -0.297299      1.237995      0.736513
O       5.77939      3.78865      6.49384        -0.161959     -0.136371     -0.361682
O       5.91224     15.52149      6.49291         0.626858      1.420812      0.497480
O       5.64445      4.01084     10.70566         0.463569     -3.039726      0.531547
O       5.61743     15.49885     10.89195         1.169860     -0.109378     -1.075032
O       5.96680      7.58265      2.18391         0.256713      0.022101      0.523962
O       6.21416      7.86741     15.03217        -1.716356     -0.246267     -0.617730
O       5.96909      7.75599      6.77186        -0.332937      0.226721     -0.251970
O       5.95483      7.79209     10.51239        -0.376376      0.967963      0.202347
O       5.74272     11.58186      2.26037         0.545453      0.249214      0.462576
O       6.04399     11.61435     14.79316        -0.921854     -0.249190      0.520199
O       5.53565     11.60712      6.46736         0.777190      0.725353      0.101124
O       5.97364     11.63256     10.89322        -2.305301      0.347412     -1.770331
O       9.65974      3.78634      1.95869         1.085605      1.949482      0.600520
O       9.89018      3.59687     15.49200        -0.729159      1.975751     -1.941243
O       9.37899     15.30540      2.14540         0.859737      3.514726      0.666738
O       9.58329     15.49657     14.81389         0.785534      0.607473      0.953371
O       9.93897      3.80132      6.49259         0.411993      1.096418      0.666676
O       9.74465      0.16831      6.65421        -1.304904     -1.040383     -0.797354
O       9.57260      3.85190     10.74810        -0.182275      1.314345      0.471381
O       9.80877      0.07452     11.09705        -0.639407     -1.786033     -0.829441
O       9.93638      7.55194      2.49665        -0.418163      0.823418     -0.505399
O       9.88355      7.62916     14.91638        -1.248158      0.398076     -1.105424
O       9.49517      7.76977      6.49550         0.855730     -0.697784     -0.283954
O       9.50966      7.80798     10.82837         1.227950     -1.452498     -0.874602
O       9.82184     11.66843      2.27924         0.450111     -0.841604      0.298113
O       9.73826     11.60887     14.87899         0.994434      2.767592     -0.353472
O       9.94223     11.78046      6.62755        -0.082271      0.244177     -0.433595
O       9.95387     11.86215     10.42180        -0.002170     -0.827814      0.745987
