  # total energy = -7849.62707899 
CRSYTAL
PRIMVEC
    15.6080000000000005    0.0000000000000000    0.0000000000000000
     0.0000000000000000   15.6080000000000005    0.0000000000000000
     0.0000000000000000    0.0000000000000000   16.6239999999999988
PRESSURE
3.65742 3.51559 2.62647 -0.348715 -0.343613 -0.225468
PRIMCOORD
320 1
Pb       4.13922      3.97548      4.22670        -0.353347      0.653879      0.132436
Pb       4.05139      3.69536     16.61553        -0.459346      1.067639      0.117282
Pb       4.17733      0.03999      4.12918        -0.839231     -0.170732      1.074951
Pb       3.92943      0.17781      0.27355         0.203414     -2.324412     -0.401263
Pb       0.26162      3.87470      4.19196        -0.006548      0.476119     -0.575353
Pb       0.04694      3.86455      0.10482        -0.122451      0.186611      0.557117
Pb      15.50331      0.06716      4.13197        -0.128312     -0.376371      0.516121
Pb       0.02068      0.07365      0.00709         0.280769     -0.498927      0.434126
Pb       3.99352      3.76892      8.18843        -0.335176     -0.159776      1.128244
Pb       3.92264      0.02471      8.64631        -0.124513     -0.869556     -0.403632
Pb      15.57824      3.74730      8.32729        -0.738836      0.790497     -0.803349
Pb      15.33059     15.54490      8.14345         0.006388     -0.261029     -0.091504
Pb       3.70587      3.83849     12.29048         0.262457     -0.014431      0.793169
Pb       3.82472      0.30198     12.38146         0.180912     -0.590733      0.293357
Pb       0.19769      3.90863     12.41007        -0.749432     -0.213583      1.051164
Pb      15.28368     15.36574     12.01459         1.334136      1.143938      2.400543
Pb       3.92576      8.15033      4.14929         0.097972     -1.137172     -0.167825
Pb       4.01426      7.92627     16.60697        -1.187413     -0.430333      1.102125
Pb       0.12023      7.70327      4.14475         0.172724     -0.226650     -0.427823
Pb       0.04777      8.11259     16.49279         1.184167     -0.491154      1.292396
Pb       4.12936      7.90961      8.61495        -1.410938     -1.021180     -0.336448
Pb       0.03206      7.79916      8.49274        -0.969482     -0.041691      0.930130
Pb       3.82921      7.57710     12.69452        -0.330785      0.008935      0.130957
Pb      15.58675      7.62215     12.48318         0.204586      0.551156     -0.008236
Pb       3.73670     11.94213      4.53314        -0.204716      0.059841     -0.398922
Pb       3.55876     11.81855      0.24105         0.256141      0.501028      0.126678
Pb       0.17476     11.61996      4.12784        -0.205413      0.849542     -0.138407
Pb      15.44177     11.62274     16.42257         0.592819      0.690009      0.299144
Pb       3.80141     11.53711      8.25424         0.027010      0.840747      1.729461
Pb      15.48927     11.61395      8.18178        -0.150180      0.628493      1.609015
Pb       4.36725     11.84970     12.44420        -2.343011     -1.204070      0.738481
Pb      15.35189     11.76809     12.49142        -0.376811     -0.511218     -0.018451
Pb       8.11794      3.95468      3.71338        -1.686043     -0.234467      1.484052
Pb       7.84502      3.97976     16.44105        -1.106774     -0.446350      0.721766
Pb       8.25503     15.57463      4.10877        -1.515364      0.358532      0.319370
Pb       7.63597     15.32870     16.53828         0.232094      1.162136      1.080780
Pb       7.51059      4.03779      7.93427         1.469468     -1.390665      2.749579
Pb       7.70301      0.03686      8.34992         0.139431     -0.512141      0.136217
Pb       7.87501      3.91802     12.39947        -0.030967     -0.690693      0.713732
Pb       8.15519      0.26002     12.63599        -2.278214     -1.608261      0.453924
Pb       7.59179      7.85662      4.08538         0.745626      0.100762     -0.359664
Pb       7.64081      7.88825      0.18305         0.728695     -0.251014     -0.175019
Pb       7.68673      8.00900      8.26882         1.431032     -0.541632      0.634605
Pb       7.72847      8.04289     12.47246        -0.319591     -1.660958      1.042914
Pb       7.70141     11.80985      4.03296        -0.191808     -0.810045      0.571225
Pb       7.95580     12.10422     16.56488        -0.783445     -3.098157      1.118075
Pb       7.62688     11.46734      7.97794         0.488943      0.609845      2.334418
Pb       7.88808     11.44906     12.67659        -0.147031      1.450257      0.042722
Pb      11.35082      3.81448      3.96726         1.532478     -0.470583      0.686480
Pb      11.79238      3.72887     16.54146         0.159828      1.047638      0.091178
Pb      11.66429     15.42913      4.28607         0.669907     -0.278917     -0.310022
Pb      11.97386      0.00118      0.23847         0.293048     -0.596153     -0.257390
Pb      11.54341      4.04965      8.53476         0.977398     -0.687189     -0.954970
Pb      11.59794      0.20600      8.13043         0.454376      0.097094      1.110490
Pb      11.54768      3.51780     12.35225         1.030652      0.666897      1.961557
Pb      11.54144     15.30173     12.32981         0.304172      0.384544      0.002402
Pb      11.22032      7.57438      4.20047         1.790169      1.192568     -0.371553
Pb      11.93012      7.90676     16.56394        -1.181930     -1.014745      1.289325
Pb      11.89641      7.60077      8.71488        -0.187028      0.584571     -0.394742
Pb      11.58538      7.72183     12.60878         0.443046     -0.332167     -0.317103
Pb      11.40551     11.48346      3.88505         0.775176      1.102830      1.559272
Pb      11.87661     11.42792     16.27704        -0.528496      2.150401      1.667367
Pb      11.30621     11.68352      8.23830         1.207657      0.103043      1.359975
Pb      11.76723     11.57809     12.37975        -0.938420      0.778078      0.562549
Ti       2.18763      1.88646      2.25861        -3.227572     -0.710328     -0.265683
Ti       1.84715      1.91340     14.78295         0.254756      0.648002     -0.308516
Ti       1.92434     13.83088      2.30759        -0.285958     -1.605701      0.820389
Ti       1.86509     13.88536     14.21295         0.091063      0.510189      1.441158
Ti      13.73489      2.19016      2.20043         0.606008     -2.038590     -0.289180
Ti      13.67656      1.96088     14.76502         0.347196      0.178773     -1.865105
Ti      13.69564     13.73531      2.07248        -0.299529     -1.792148      0.368276
Ti      13.70687     13.76913     14.42711        -0.260255     -1.246052      0.562989
Ti       1.85121      2.00043      6.37440         0.719227     -1.265366     -0.927000
Ti       1.95921     13.72269      6.62668         0.355809      0.065136     -0.398648
Ti      13.50736      1.85993      5.93927        -0.402808      0.640098      2.265045
Ti      13.40358     13.45295      6.41768         1.429125      0.651929     -1.351888
Ti       1.78611      1.96362     10.19333         2.246213     -0.778412      1.056321
Ti       1.82099     13.66482     10.57574         1.047234     -0.468843     -2.573137
Ti      13.73928      1.97475     10.56902        -0.976831     -1.338720     -0.709432
Ti      13.37068     13.62913     10.34367         0.446225      0.041371      0.077531
Ti       2.06278      5.82798      2.10978         0.063737      0.440577      0.840677
Ti       1.95534      5.85676     15.03165         0.372152     -0.920134     -1.223177
Ti      13.60884      6.03160      2.40910         0.160987     -0.155613     -1.250281
Ti      13.67802      5.89213     14.96628         0.190887     -2.088246     -2.091235
Ti       2.22562      5.88036      6.74962        -0.810664      0.445616     -2.365560
Ti      13.80459      5.72790      6.29362        -0.453927     -0.284692      0.343944
Ti       2.03343      5.85594     10.42572        -0.319260      0.612941      2.193921
Ti      13.59821      5.81232     10.81689         0.654141      0.711257     -0.784864
Ti       2.11344      9.77237      2.33156        -1.095027      0.356156     -1.045750
Ti       2.19947     10.06873     14.65562        -1.828058     -0.067343      1.200678
Ti      13.60942      9.91437      2.32825         0.716638     -1.206803     -0.392250
Ti      13.59742      9.64817     14.57794         1.248230      2.013999     -2.411952
Ti       1.75112      9.68695      6.62968         1.939408     -0.061814     -1.626900
Ti      13.51447      9.52647      6.27788         0.813717     -0.139745     -0.280513
Ti       1.79981      9.99696     10.93499        -1.500565     -2.264127     -2.167342
Ti      13.42823      9.77858     10.60839         1.989095     -2.153666      0.651687
Ti       6.17374      1.90667      2.30357        -1.221486     -1.246765     -1.097258
Ti       5.88219      1.75553     14.86294        -0.079507      0.115093     -2.049429
Ti       5.80133     13.65218      2.27960        -0.322754      0.800373     -0.855142
Ti       5.72748     13.48093     14.78709        -0.766407      2.924741     -0.609027
Ti       5.75795      1.91937      6.21552        -0.281172     -1.299676     -0.221371
Ti       5.91922     13.60766      6.45317        -1.955129      0.643733     -1.229106
Ti       5.80722      1.91864     10.42337        -0.252360     -0.470353      1.276198
Ti       5.83171     13.54961     10.74625        -1.361855      1.153192     -2.002504
Ti       5.86137      5.73720      2.12251        -0.887209      1.663048     -0.920682
Ti       5.82645      5.81922     14.75075        -0.829807     -0.487290      0.548588
Ti       6.18455      5.97333      6.37575        -2.201677     -1.240977     -2.314223
Ti       6.04131      5.76416     10.64987        -1.575416     -0.233720     -1.374630
Ti       5.89421      9.95525      2.03433         0.425377     -0.505757      1.730598
Ti       5.89841      9.74661     14.78497        -0.147569     -0.122067     -0.595779
Ti       5.80090      9.71892      6.35503        -1.476196      1.070884     -0.459583
Ti       5.59812      9.52370     10.69343         0.796174      2.606357     -0.749727
Ti       9.87045      1.74332      1.79979        -0.016154     -0.047378      2.237903
Ti       9.77985      1.87478     14.80599        -0.591537      0.613357     -0.929021
Ti       9.76866     13.50302      2.09471         0.796747      0.444911     -0.619985
Ti       9.80981     13.68299     14.70540        -0.120846     -1.169202     -1.870933
Ti       9.51051      2.04022      6.43174         2.163697     -0.361651     -0.579293
Ti       9.66614     13.60110      6.40766        -1.661308      0.912510      0.408447
Ti       9.76176      1.79985     10.54057        -0.429559     -0.456830     -0.838186
Ti       9.33887     13.43199     10.60161         2.379911      0.989842     -0.888665
Ti       9.75750      5.70031      1.94964         0.379771      1.829230     -0.361432
Ti       9.72675      5.93026     14.89002         0.572411     -0.230682     -0.459257
Ti      10.00615      5.82358      6.18510        -1.142939     -0.027520      0.482853
Ti       9.84897      5.72953     10.66975         0.058713      1.490402     -0.823419
Ti       9.72270      9.55632      2.17738        -0.944315      1.400835     -0.060627
Ti       9.74271      9.66945     14.47798        -0.959808      0.172465      3.353488
Ti       9.96390      9.57735      6.47702        -2.867587     -1.067437     -1.766881
Ti       9.59058      9.66039     10.48910         1.107329     -1.269607     -1.679619
O       1.92143      1.31732      0.47796        -0.545117      1.262189      1.106477
O       1.82509      2.18516     13.00725         0.742299      0.155921      0.454480
O       1.94666     14.05236      0.59069         0.057157     -0.132803     -0.292321
O       1.72339     14.02472     12.38416         0.233328     -0.306760      1.996792
O      13.47782      1.93695      0.31885         0.133168     -0.122935      0.112555
O      13.80536      1.76821     12.97068        -0.485065      0.313779      0.014141
O      13.69282     13.38113      0.28685        -0.211321      0.565605     -0.167152
O      13.53424     13.61312     12.59624        -0.259495      0.434033      0.675568
O       2.05374      2.14823      4.56922         0.204932      0.255340     -0.304913
O       1.76684     13.29667      4.80158        -0.049986      0.239616      0.197502
O      13.40371      1.71631      4.15930         0.456958      0.685300     -0.070423
O      13.39057     13.57557      4.57845        -0.493108      0.303035      0.789209
O       1.94079      1.92777      8.43607        -0.715021      0.494937     -0.103434
O       1.83359     13.37204      8.58804         0.036237      0.567077      0.801781
O      13.77542      1.73672      8.80643        -0.073713      0.988348     -0.053835
O      13.22237     13.87967      8.59857         0.265331     -0.883093     -0.568303
O       2.20638      5.93472      0.40055        -0.373514     -0.135394     -0.139966
O       1.88815      5.30550     13.25422        -0.011871      1.311865     -0.485308
O      13.64723      6.11308      0.58815        -0.179235     -0.017700     -0.248372
O      13.85795      5.90672     13.14660        -0.581129      0.331346      0.183662
O       2.23737      5.82318      4.88591        -0.529553      0.169971      1.090499
O      13.80565      5.65917      4.52526         0.135302      0.291243     -0.579997
O       1.76553      5.89432      8.75645         0.321600     -0.620639     -1.093564
O      13.29442      5.79906      8.99820         0.253287     -0.867773     -0.301451
O       2.16950      9.81007      0.58442        -0.346956      0.200538     -1.684778
O       2.25269      9.89157     12.95509        -0.147017     -0.392561     -1.250206
O      13.49808      9.80805      0.41349         0.349463      0.004481     -0.393828
O      13.33961      9.71168     12.79391         0.688355     -0.796030      0.965564
O       2.06286      9.85870      4.60197        -0.628604     -0.792507      0.870512
O      13.52261      9.72698      4.51212         0.437515      0.102594      0.637544
O       1.25053      9.90929      9.11552         1.806465     -0.334214     -0.167678
O      13.69353      9.42674      8.92935        -0.438318      1.022336     -1.621818
O       6.19692      1.59939      0.48830        -0.799924      1.069257      0.124721
O       5.56994      1.73407     13.04973         0.340272      0.414314      0.330179
O       5.57364     13.77940      0.44776         0.999481     -0.595617      0.954046
O       5.61333     13.67834     12.98457         0.742689     -0.041854     -0.553006
O       5.80056      2.11784      4.41109         0.200377     -0.307400     -0.127878
O       5.75592     13.25270      4.64520         0.898794      0.980661      0.371325
O       5.60217      1.80693      8.69367         0.696841      0.419132     -1.310781
O       5.72823     13.67733      8.99298         0.649557     -0.316476     -1.118655
O       5.78607      5.86761      0.30329         0.063469      0.150205      0.946523
O       5.72774      5.99970     12.97511         0.694031     -0.607737     -1.066703
O       6.00638      5.59102      4.56156        -0.015473      0.517863      1.101658
O       6.26257      5.95612      8.80129        -0.593388      0.147959     -0.089101
O       6.00745      9.77666      0.33055        -0.042373     -0.167522     -2.360283
O       5.84430      9.51882     12.87031        -0.572350      0.760606     -0.795979
O       5.56761     10.02241      4.63816         0.405673     -0.769474     -0.638592
O       5.89754      9.42915      8.75539        -0.169209      0.364343      0.409201
O       9.64114      1.44753      0.12765         0.325086      0.595654     -0.917591
O       9.74095      1.83880     12.88295         0.125513      0.718368     -0.550925
O       9.70841     13.52680      0.27858         0.299551      0.244216     -0.550250
O       9.41913     13.51382     12.87720         0.950665      0.050672      0.245472
O       9.56444      2.13754      4.66501         0.462361     -0.441398     -1.132921
O       9.72754     13.85180      4.66341         0.095462     -1.371928     -1.694685
O       9.69544      1.79814      8.78487        -0.256475      0.356788     -1.715844
O       9.31668     13.51872      8.76355         0.640695     -0.531480      0.775852
O       9.61511      6.19883      0.27801         0.719965     -1.024234      0.477128
O       9.91494      5.34905     13.24650        -1.220864      0.464033     -2.559032
O       9.73599      5.71610      4.30791         0.016094     -0.548490      0.014730
O      10.08308      5.83085      8.88448        -0.166806     -0.973715     -0.131725
O       9.44476      9.77837      0.48131         0.912172     -0.399761     -1.503265
O       9.68981      9.55746     12.76708        -0.150648      0.108976     -2.276941
O       9.85964      9.45329      4.59384        -0.242226      0.990338      0.135977
O       9.65135      9.68555      8.51187         0.148212      0.164344      1.476195
O       3.94612      1.51914      2.16576         1.412950      1.113778      1.478592
O       3.72747      1.68637     15.31731         0.968547      1.319506     -1.863729
O       3.89257     13.76866      2.80560         0.612283      0.035433     -0.850908
O       3.58501     13.88088     14.74831         1.051543      0.282949     -0.319748
O       0.04964      1.84878      2.44246        -1.111734     -0.374049      0.435010
O      15.47949      1.96807     15.28528         0.670662      0.903649     -0.337076
O      15.54687     13.43174      2.49594        -0.129837      0.884062      0.217053
O      15.56683     13.40180     14.41359        -0.466927      0.627139      1.113684
O       3.93273      1.82734      6.54526        -0.523909      0.215818      0.085596
O       3.90498     13.63569      6.65486        -0.588980     -0.137505      0.115170
O      15.55030      1.89231      6.23549         0.412659      0.531611      0.553357
O      15.27040     13.52363      6.69586         0.076361     -0.073067     -0.111257
O       3.71547      2.04484     10.69693         0.133303     -0.022596      0.082795
O       3.74273     13.51980     10.87661         0.191083     -0.519227     -0.361366
O       0.07249      1.84628     10.81267        -1.588428      0.376571     -0.385224
O      15.37241     13.53145     10.47671        -0.056690      0.464773      0.149717
O       3.86488      5.74861      2.56624         1.225511     -0.251914      0.101019
O       3.92425      5.63036     15.01364         0.707860      0.616618     -0.015842
O       0.18893      5.88656      2.58941        -0.635272      0.445558      0.410319
O      15.59396      5.92826     15.42421         0.286269     -0.302588     -0.739644
O       4.11735      5.89472      7.12515        -0.485410      0.347186     -1.069365
O      15.58790      5.82004      6.81371         0.033230     -1.187564     -0.245925
O       3.90733      5.63220     10.67737        -0.670565      0.936557      0.224722
O      15.49283      5.86584     10.90326         0.836259     -0.692093     -0.147574
O       4.11155      9.66044      2.30062        -1.633390      0.104168      1.017516
O       3.92206      9.83416     15.14075         0.472230      0.316160     -0.091300
O       0.05048      9.84262      2.22046        -0.880661     -0.191057      1.415866
O       0.14037      9.83546     14.87830        -0.546987     -0.243375     -0.004614
O       3.85438      9.43794      6.92357        -0.067331      0.762354     -0.460662
O      15.52718      9.71268      6.76937        -0.343758     -0.035926     -1.099666
O       3.79326      9.93109     10.65582         0.497860     -0.626939      0.125390
O      15.43376      9.68450     11.32805         0.690585      0.266209     -0.336790
O       7.98260      1.82839      2.50887         0.764825      0.490655     -0.483823
O       7.77261      1.97762     14.76581        -0.014109     -0.599080      0.435490
O       7.80746     13.52108      2.47748        -0.204132      1.350214     -0.006325
O       7.65172     13.65058     14.97763        -0.397383     -0.542696     -0.569197
O       7.67960      2.13628      6.52281        -0.020355     -0.068702      0.635199
O       7.74808     13.37870      6.67356        -0.573878     -0.391638     -0.336089
O       7.64584      1.97643     10.58220         0.709275     -0.356594      1.075492
O       7.62518     13.61184     11.07467         0.051006      0.202790     -0.122707
O       7.82041      5.84493      2.14042        -0.141935     -0.753500      0.894680
O       7.77889      6.15543     15.06190        -0.902292     -1.312431     -0.505288
O       8.06187      5.62390      6.48394        -2.131667      0.249977      0.065556
O       7.88943      5.76514     10.91904         0.182527     -0.031251      0.630829
O       7.71468      9.61534      2.43273         0.170497     -0.002823      1.338487
O       7.76644      9.56284     14.60668         0.163064      0.073211      0.738182
O       7.65124      9.80498      6.43032         0.695629     -0.411632      0.301552
O       7.76985      9.43352     10.63227        -0.299327     -0.059860      0.550577
O      11.71501      2.14602      2.24025        -1.306949     -0.618834     -0.285405
O      11.62557      2.00310     14.88303         0.430396     -0.655576      0.330218
O      11.61473     13.67473      2.22932         0.054716     -1.125431      0.603185
O      11.66028     13.63858     14.70007         0.154380     -0.355766      0.191300
O      11.61824      1.56484      6.31987        -0.443295      0.570463     -0.013102
O      11.35396     14.05278      6.69797         2.680845     -1.483198     -0.005070
O      11.59895      1.72401     10.72516         0.693530      0.216976      0.371409
O      11.47693     13.43922     10.82325         0.165202      0.311169     -0.249823
O      11.66737      5.78000      2.34177        -0.399852     -0.654892      0.387720
O      11.64518      5.87962     15.08883         1.984463      0.571972      0.778010
O      11.77415      5.76879      6.47432         0.798790      0.838099      0.454263
O      11.70169      5.77728     11.28618        -0.512356     -0.323113     -0.702013
O      11.61863      9.79251      2.49043        -0.277889     -0.656762     -0.969918
O      11.69394      9.85068     14.69831        -0.725452     -1.191282      0.642202
O      11.67905      9.30786      6.64953         1.642698      0.437856      0.440442
O      11.54237      9.44561     10.82517         0.198471      1.311322     -0.318344
O       1.90385      3.70815      2.12883         0.688061      0.945857      0.684738
O       2.00958      3.80960     15.49311        -0.781227     -0.670787     -0.541484
O       1.84534     15.55138      3.09492         1.055907      0.289141     -1.365478
O       1.35248      0.12809     14.61039         0.898319     -2.413418      0.277685
O      13.99454      3.90974      2.36492        -1.048503      1.209437      0.411026
O      13.59436      3.91516     14.94859         0.185824      0.089899      0.685921
O      13.46267     15.54498      2.12865         0.560834     -0.107931      0.443464
O      13.69095     15.50473     14.93440        -0.309878      0.321428      0.029223
O       1.93508      3.90360      6.91874         0.257727      0.218284     -0.728576
O       1.87885     15.55381      6.63393        -0.470053      0.285613     -0.208188
O      13.49866      3.67198      6.56589         0.638395      0.583232      0.008539
O      13.68446      0.04444      6.45782        -0.361078     -0.492795      0.231352
O       1.80547      3.88984     10.70050        -0.113082      0.355254     -0.263879
O       1.97123      0.04960     10.20440        -0.272669     -1.043371      1.177453
O      13.50994      3.75231     10.85401         0.228880      1.025496     -0.123330
O      13.56448     15.59437     10.69362        -1.422008     -1.317493     -0.220462
O       2.07666      7.83354      2.42500        -0.199385      0.017955      1.129262
O       2.15636      7.71339     15.06773        -0.400812      0.834795     -0.566988
O      13.34950      7.82468      2.79372         1.543220     -0.391358     -0.752816
O      13.79685      7.86714     15.10666        -0.949245      0.038160     -0.612223
O       1.88756      7.78487      7.15036         0.375587      0.473362     -1.462845
O      13.82413      7.64235      6.63404        -0.744993      0.970511     -0.363459
O       1.87047      7.77289     10.95974         0.646439     -0.935267      0.139095
O      13.65983      7.74761     10.79389        -0.858719     -1.142885      1.370051
O       2.17846     11.84412      2.31826        -0.360137     -0.869808      1.024085
O       2.07759     11.98102     15.08969        -0.914252     -1.696503     -0.824654
O      13.43722     11.67629      2.48732         0.394998      0.220355      0.130639
O      13.66410     11.60584     14.66967        -0.340243      0.068940      1.012747
O       2.02174     11.54748      6.87101        -0.878641     -1.072943     -0.929145
O      13.29487     11.53532      6.68018        -0.425853      0.462021      0.164585
O       1.60590     11.74372     11.17212         1.213572      1.019575     -0.955189
O      13.49118     11.63030     10.79297        -0.277809      0.740544     -0.626193
O       5.76354      3.79564      2.26500         0.577521     -0.094982      0.533548
O       5.93359      3.82078     15.05788        -0.294108      0.504662     -0.365354
O       6.11980     15.57299      2.82210        -0.582200     -0.317641     -0.641001
O       5.84954     15.49277     15.14504        -0.146953      0.750583     -0.798467
O       5.63553      3.77664      6.58754         0.895636      1.569456      0.301895
O       6.05316     15.51054      6.49438        -0.171582      0.275566      0.089990
O       5.79672      3.92459     10.75072         0.631477     -0.258706      0.304883
O       5.42605     15.60727     10.68830         0.814855      0.504262      0.610620
O       5.88758      7.66140      2.56207        -0.397933     -0.141345     -0.240957
O       5.60448      7.95297     14.97468         0.603869     -1.958759     -0.014469
O       6.05052      7.76624      6.35342        -0.075847     -0.340035      0.417139
O       5.57181      7.71933     10.95278         0.509664     -0.764390     -0.291287
O       5.89891     11.78638      2.22780         0.000916     -0.241770      0.741132
O       5.68753     11.69430     14.98183         0.364663     -0.517786     -0.261331
O       5.57211     11.62068      6.85012         1.000657     -0.184775     -0.415771
O       6.07061     11.51908     10.84673        -0.973507      0.410029      0.516425
O       9.73547      3.74671      1.86394        -0.350418      0.932572      1.004678
O       9.69616      3.79974     15.22172         0.354833     -0.402755     -0.177934
O       9.93259     15.51308      2.29090        -0.832492      0.810021      0.648641
O       9.51265     15.47013     14.66737         0.513435      1.209457      0.513525
O      10.15193      3.89825      6.46904        -1.498771     -0.942055      1.112203
O       9.23308     15.54989      6.63502         0.597250      0.790425      0.091363
O       9.85323      3.73860     10.75861        -0.649314      0.741922      0.353736
O       9.63177     15.41862     10.80307        -0.223458      0.449505      0.265636
O       9.70048      7.74850      2.42909         0.091497     -1.233024      0.093110
O       9.85225      7.80617     14.88202         0.147075      1.384439     -0.488024
O       9.61029      7.64025      6.50801         0.267806      0.141448      0.197653
O       9.83008      7.64291     10.61781        -0.472031      0.094506      1.329207
O       9.43492     11.64833      2.48188         1.794742      0.019958      0.048348
O       9.42491     11.59468     14.81895         1.130317     -0.154032     -0.098797
O       9.87903     11.50590      6.55913        -0.315599      1.502101     -0.529744
O       9.56570     11.46426     10.96738        -0.003593      0.853453     -0.769166
