  # total energy = -7845.71924040 
CRSYTAL
PRIMVEC
    15.6080000000000005    0.0000000000000000    0.0000000000000000
     0.0000000000000000   15.6080000000000005    0.0000000000000000
     0.0000000000000000    0.0000000000000000   16.6239999999999988
PRESSURE
1.67223 0.412756 -3.90204 -0.168377 0.060276 -0.042219
PRIMCOORD
320 1
Pb       4.03889      4.12606      4.24511        -1.368196     -1.392441      0.069170
Pb       3.94168      4.06953      0.14483        -0.229257     -0.151159     -0.106586
Pb       4.04652      0.13319      4.42210         0.792045      0.585331      0.005910
Pb       3.75206     15.44558      0.09836        -0.716544      1.425930     -0.537336
Pb       0.19055      4.02514      4.29074         0.782121     -0.552801     -0.986436
Pb       0.03728      3.81491      0.14872         0.741432      0.024072      0.309821
Pb      15.42199     15.53664      4.48747         0.626222      0.105307     -0.631284
Pb       0.30818     15.46394     16.62295        -0.071392      0.311870      0.258261
Pb       3.88144      3.65488      8.28013         0.946172      1.392392     -0.192995
Pb       3.80456      0.01246      8.43424         1.307138     -0.199073     -0.451369
Pb      15.39434      4.04306      8.14451        -0.061377      0.110983      0.450111
Pb      15.24897      0.06198      8.01171         0.151853      0.287957      0.057484
Pb       4.04107      3.90849     12.38366        -0.888278     -0.260549      0.181712
Pb       3.79903      0.07398     12.43417        -0.111350      0.320600     -0.083881
Pb       0.05574      3.66842     12.68656         0.356306      0.275065     -0.518563
Pb      15.57168     15.58680     12.25848        -0.558856      0.180652     -0.342562
Pb       3.71525      7.95855      4.25358        -0.462406     -0.192966      0.313111
Pb       3.61002      8.07421      0.13227         1.718001     -1.389906      0.106667
Pb      15.57474      7.87117      4.11988         0.208347     -0.429969     -0.206212
Pb       0.15443      7.96479      0.12153        -0.970612     -0.613135      0.204022
Pb       3.86127      7.91701      8.70101        -0.812223     -1.961206     -0.631785
Pb       0.03207      7.57333      8.50017         0.335745     -0.846546      1.191600
Pb       3.81301      7.67027     12.77270        -0.179900     -0.428569      0.427937
Pb       0.21593      7.42154     12.79545         0.036806      0.338303     -0.022316
Pb       3.79022     11.89483      4.46417        -0.618930     -0.663880     -0.201143
Pb       3.62134     11.83642      0.04917         0.241288     -0.702845      0.912074
Pb      15.52580     11.61880      4.68561         0.968197      1.095022     -1.927869
Pb       0.02358     11.86393     16.57385        -0.087487     -0.339441      0.281964
Pb       3.79274     11.67648      8.64637         0.915788      0.467177      0.348926
Pb      15.45354     11.23195      8.18118         0.472942      1.668249      2.191965
Pb       3.67976     11.84704     12.57557         1.336812      0.322449     -0.370716
Pb      15.40095     11.77624     12.40264        -0.626756      0.265490     -0.122353
Pb       7.72702      4.15263      4.12994         0.227634     -0.388673      0.531085
Pb       7.83204      3.66419     16.58335        -0.220739      1.711842      0.270657
Pb       7.85977      0.08060      4.04298        -1.349200     -0.598936      0.372419
Pb       7.68037      0.14719      0.02963         0.217967     -0.491268      0.336692
Pb       7.79768      3.95745      8.56244         0.240383      0.742351     -0.633863
Pb       7.75916      0.15410      8.30964        -0.613167     -0.562893     -0.154280
Pb       7.97788      3.83047     12.60729         0.023930     -0.018403      0.420781
Pb       7.70507     15.43085     12.76749         0.316407     -0.209345     -0.580621
Pb       7.70647      7.71429      3.99175         0.831353      0.022422     -0.797373
Pb       7.77033      7.93324     16.47974        -0.486352     -0.296009      0.586320
Pb       7.89520      7.78670      8.33872        -0.367183     -0.655553     -0.728970
Pb       7.58894      7.69697     12.78532        -0.196343      0.772407     -0.657861
Pb       7.59216     11.92039      4.22858         0.281698      1.056145      0.163521
Pb       7.64464     11.42855     16.61082        -0.182380     -0.025687      0.121755
Pb       7.57423     11.82920      8.48590        -0.542691     -0.132600     -0.059050
Pb       8.13994     11.92880     12.82508        -2.196621     -0.200247     -1.342520
Pb      11.98874      3.92092      4.03619        -1.010347     -0.408257     -0.823030
Pb      12.01672      3.79590      0.02357        -0.577191     -0.034467      0.969437
Pb      11.91898     15.37026      4.16313        -1.044897      0.712436      0.755773
Pb      12.22403     15.52397      0.34492        -0.702123      0.486357     -0.454914
Pb      11.62082      4.08183      8.43530        -0.417395     -0.564730      0.290810
Pb      11.47721      0.22790      8.11132        -0.122125      0.266356      0.322165
Pb      11.79977      3.76650     12.73619        -0.822053     -0.041391     -1.192399
Pb      11.69349     15.45792     12.10862        -0.289120     -0.066455      0.798631
Pb      11.54195      7.59391      4.19979        -0.146020      0.974457     -0.641669
Pb      12.03161      7.72597     16.59351        -0.314136      0.363400      0.707033
Pb      11.72297      7.69757      8.51999         0.177689     -0.498980      0.299696
Pb      11.62928      7.68331     12.52072         0.358447      0.552610     -0.178099
Pb      11.59762     11.62065      4.31380        -0.534832      0.728226     -0.598563
Pb      11.78205     11.61756      0.09156         0.075128     -0.475063     -0.569515
Pb      11.58949     11.20080      8.18737        -0.667609      0.375892      0.412579
Pb      11.38787     11.48667     12.15925         1.410989      1.039582      1.398494
Ti       2.03718      1.95340      2.45577        -0.706492      0.409522     -1.245958
Ti       1.91738      1.92351     14.67508         0.409113      0.754573      0.501899
Ti       1.95355     13.66760      2.42837        -2.311642      0.599617      1.012090
Ti       1.80623     13.65758     14.29927         1.002733      1.095254      0.971981
Ti      13.92398      1.96047      2.08208        -0.139724      0.652975      1.393111
Ti      13.54666      1.88278     14.42816         3.283493     -1.474268     -1.138884
Ti      13.83591     13.58963      2.03506        -0.690781     -0.468094      0.604871
Ti      13.52308     13.58323     14.43420        -0.677071      0.408005     -1.945312
Ti       1.98323      2.03841      6.21901         1.517835      0.090806     -1.343160
Ti       1.95191     13.76339      6.53920        -0.651761     -0.138657     -0.712319
Ti      13.44773      2.04371      6.03294         2.330657     -0.757333     -0.056346
Ti      13.41049     13.43866      6.37832         0.383802      2.469658     -0.806719
Ti       1.94988      2.00146     10.04693        -0.173406      0.420558      1.759328
Ti       1.88963     13.61108     10.31197        -1.272513      1.698353      0.324948
Ti      13.68641      1.91397     10.26049        -1.315646      1.564415      0.609024
Ti      13.42287     13.60056     10.03979         1.338207     -0.511159      1.803095
Ti       1.95914      5.93361      2.36143         0.712165     -0.085966     -0.799039
Ti       1.91445      5.78985     14.97944         1.065734      0.112538     -0.932114
Ti      13.68785      5.92548      2.33592         3.890310     -1.056809     -2.309027
Ti      13.61571      5.80874     14.60400         2.283613      0.240535      1.278271
Ti       1.97474      5.86390      6.43243         1.050337      0.687057      0.660660
Ti      13.67628      5.68839      6.13818        -0.360283      1.487256      1.249110
Ti       2.09311      5.85042     10.57779        -0.564557     -0.090783     -0.235901
Ti      13.66390      5.75858     10.72549         1.808942     -0.235660     -0.619605
Ti       1.79832      9.92830      2.16676         3.238589      0.262112     -1.761877
Ti       1.92042      9.84942     14.73753        -1.104358     -1.844672     -0.563269
Ti      13.58632      9.77897      2.19342        -0.218615     -0.518927     -0.648087
Ti      13.66899      9.73805     14.56251        -0.090271     -0.069839     -0.437839
Ti       1.91727      9.79440      6.54599         2.607851     -1.216721     -2.130345
Ti      13.66897      9.60926      6.33521        -1.505070     -2.374016     -0.730680
Ti       1.93124      9.85623     10.85337        -2.985012     -2.659277      0.041880
Ti      13.64395      9.75254     10.60854         1.032493     -1.789088      1.124596
Ti       5.83543      2.01684      2.01981        -0.825886     -1.263350      0.452844
Ti       5.79658      1.68733     14.61805        -1.552409      3.380694     -0.542096
Ti       5.56773     13.75561      2.18176         3.469804      0.376609      1.005996
Ti       5.71715     13.42469     14.80591         0.222701      1.273961     -1.577041
Ti       5.98458      2.08045      6.35844        -2.908416     -1.259869     -1.115162
Ti       5.67091     13.61001      6.44552         1.997089      2.676262     -0.372086
Ti       5.84949      1.86707     10.44032         0.821264      0.519677     -0.610568
Ti       5.87054     13.72580     10.49960        -0.112867     -1.595137      0.582741
Ti       5.66763      6.02149      2.03950        -0.224836     -2.193650     -2.212041
Ti       5.79522      5.65318     14.47820        -0.588341      0.063783      1.360587
Ti       5.76163      5.96856      6.11163         0.937101     -1.466179      0.446665
Ti       6.04896      5.77890     10.59919        -1.555819     -0.231127     -1.628229
Ti       5.73573      9.87881      2.30062        -1.317303     -1.118225     -3.075278
Ti       5.66369      9.66319     14.50871         1.974423     -0.879396     -0.429257
Ti       5.80237      9.71347      6.12740        -0.482946      0.337860      0.357414
Ti       5.59325      9.54876     10.49982         3.106789      1.210046      1.285819
Ti       9.80736      2.02737      2.33373         1.424177      0.343019     -0.185304
Ti       9.78998      1.96004     14.77456         0.002720      0.436766     -0.202247
Ti       9.74150     13.68585      2.06201        -1.463570      0.059356      1.425367
Ti       9.69796     13.70588     14.85128         1.323479      0.687890     -1.408666
Ti       9.69486      2.07192      6.22802        -0.338970      1.502124      0.776727
Ti       9.63951     13.62015      6.29491        -0.870270      0.127290     -1.499819
Ti       9.68631      1.79362     10.55448         1.034604      0.867802      0.977880
Ti       9.72499     13.44747     10.11821        -3.483419      1.202723      0.801350
Ti       9.57635      5.72714      1.98934        -1.279878      2.560832     -2.061862
Ti       9.81872      6.03224     14.49556        -1.825804     -2.946861      0.258897
Ti       9.86761      5.90782      6.14056        -2.331078     -2.708013      0.062561
Ti       9.84296      5.79153     10.56347        -0.632285     -1.596356     -0.123408
Ti       9.72056      9.85669      2.05819        -0.207686     -2.106249     -0.605889
Ti       9.75976      9.75074     14.45580         0.385928     -1.417021      0.902924
Ti       9.73542      9.57256      5.99227        -1.616902      0.902474     -0.135132
Ti       9.53067      9.54778     10.51375        -1.362022     -0.018485     -0.333372
O       1.79196      1.46725      0.16512         0.669121      1.088464     -0.197194
O       2.26785      2.18887     12.84298        -1.145347     -0.714618     -0.165920
O       2.01885     13.54829     16.55967        -0.698458      0.188984     -0.040344
O       1.84740     13.63358     12.39338         0.774472      0.594162      0.961616
O      13.78554      2.11044      0.28382        -0.809042     -0.939840     -2.568028
O      13.74052      1.97506     12.52339        -0.302403     -0.284243      0.710809
O      13.52717     13.55104      0.19282         0.765688      0.047677     -0.193595
O      13.41391     13.49947     12.50800         0.803895      0.628726      0.645095
O       2.05985      2.06208      4.34964        -0.273710     -0.589941     -1.323442
O       1.88094     13.38325      4.20822         0.078123      1.093445      0.672810
O      13.63360      1.84343      4.08564        -0.049630      0.149275      1.112730
O      13.54772     13.66419      4.53670         0.465644     -0.006297     -0.579969
O       2.07333      1.94783      8.18762        -0.577541      0.182385      3.150478
O       1.92235     13.69956      8.40122         0.218973     -0.355267     -0.842366
O      13.61099      2.13615      8.24610         0.157464     -0.491230      1.347339
O      13.47747     13.92310      8.25381         0.807266     -0.322147      1.516034
O       1.85994      6.25588      0.06538        -0.364503     -1.914689      0.277440
O       2.07088      5.68994     12.46307        -0.256776      0.668466     -0.261089
O      13.74396      6.17526      0.13545        -0.253345     -1.736314     -1.346077
O      13.76341      5.80791     12.63556        -0.286990     -0.144374     -1.242187
O       2.28447      6.09491      4.27187        -0.902109     -1.002819     -0.638228
O      14.06034      5.71614      4.24255        -1.321054      0.998208      0.280360
O       2.03064      5.94210      8.39562        -0.200947     -0.240767     -1.109072
O      13.50519      5.60627      8.25713         1.384822     -0.033975     -0.878806
O       1.95328      9.81189      0.03123        -0.668240      0.976544     -2.091758
O       1.76864      9.47306     12.63356         0.735510      1.319060     -0.982209
O      13.32597      9.69546      0.10804         0.778445     -0.121441     -0.916665
O      13.68313      9.78331     12.56374        -0.150240      0.132798     -0.559975
O       1.79229      9.86821      3.88080         0.217630     -0.330330      3.289963
O      13.75946      9.63144      4.11997         0.362513      0.353785      0.712246
O       1.93606      9.82183      8.30507        -0.132502      0.216654      1.134902
O      13.76591      9.62001      8.21962        -0.555728      0.311182     -0.652256
O       5.79517      1.61891      0.16372        -0.023562      0.748204      1.069515
O       6.03383      1.85731     12.70904        -0.653219     -0.232895      0.151101
O       5.60541     13.54261      0.15449         0.305710      0.618886      0.212663
O       5.92828     13.64978     12.74466         0.059456      0.026004     -0.534162
O       5.90591      1.80685      4.53232         0.173546      0.356663     -1.018074
O       6.04275     13.69923      4.21002        -1.396346     -1.004988      0.329149
O       5.67608      1.53248      8.46915         1.220751      1.610787      0.503113
O       5.84636     13.80177      8.28257         0.567130     -1.231248      1.660632
O       5.70413      5.92894      0.09320         0.886703     -0.260844      0.714464
O       5.82585      5.50881     12.54184        -0.580711      0.769942      0.723263
O       5.55449      5.72947      4.16422         1.638117      1.143799      1.221556
O       6.09739      5.75376      8.66028         0.486624      1.092245      0.342791
O       5.99074      9.47001      0.22557         0.525829      1.026468      0.076770
O       5.84551      9.64387     12.70968        -1.137123      0.828025     -0.100110
O       5.36100      9.85056      4.28827         2.499016     -0.312280     -0.556517
O       5.60705      9.48930      8.63063         0.494351      0.776339      0.096097
O       9.95713      2.18053     16.55795         0.166575     -0.169674      0.308522
O       9.58518      1.92047     12.48351         0.234877     -0.659929      0.212499
O       9.81471     13.39794      0.30811         0.276845      0.775255     -1.203498
O       9.65455     13.59594     12.64300         0.262151      0.221162      1.463832
O       9.63145      2.20269      4.35042         0.198762     -1.079997     -1.689502
O       9.93925     13.50978      4.43559         0.011333      0.668441     -0.901658
O      10.06542      2.22320      8.29881        -1.000293     -1.489259     -0.311685
O       9.51393     13.48110      8.26929         0.598112     -0.770146      1.456220
O       9.41314      5.45076      0.05910         1.172343      1.417088      1.133448
O       9.90644      6.03921     12.51040         0.811390      0.397091      1.231208
O       9.83449      5.76601      4.31981        -0.415719      0.696714     -0.455374
O       9.69868      5.83293      8.58700        -0.000738     -0.023042      0.202266
O       9.50659      9.97439      0.16099         0.856680     -0.899802      1.112699
O       9.82404      9.51094     12.55053        -0.065977      0.248081      0.210449
O       9.64176      9.27930      4.18077         0.624275      1.130388      1.574865
O       9.84703      9.66703      8.60845        -0.454943      0.124252      0.173196
O       3.81160      1.57904      2.37721         1.831200      0.371399     -0.814987
O       3.84013      1.65153     14.77219         2.131039      0.042428      0.130635
O       3.81351     13.93141      2.29921         0.327332      0.166385     -0.167057
O       3.89643     13.69451     14.46848        -0.244191     -0.339790      0.318345
O       0.08620      2.14273      2.18010        -0.274117      0.192936      0.497924
O      15.57843      2.22955     14.48030         0.531924     -0.867448      0.719211
O      15.51469     13.03016      2.46745        -0.013414      1.347118     -1.114426
O       0.08093     13.53108     14.57228        -1.981013      0.031593      0.086628
O       3.91533      2.29447      6.35392         0.787666     -1.034372      0.381320
O       3.82459     13.35689      6.31925         0.423947      0.420457      0.175142
O       0.18590      2.03310      6.28642        -1.604438     -1.671153      0.483782
O       0.02742     14.01242      6.44082        -0.100478     -0.838697     -0.314136
O       4.01106      1.82486     10.35198        -2.371451      0.295852      0.542341
O       3.97117     13.69448     10.20742        -0.307395      0.301321      0.594393
O      15.60336      1.91899     10.64610         1.470035     -0.365494     -1.175030
O       0.03627     13.45871     10.40684        -0.838557      1.052158     -0.119292
O       3.77211      5.70426      1.98559         1.708033      0.176341      0.137593
O       3.87002      5.55580     14.70015         0.811313      0.721639     -0.912405
O       0.23512      5.70650      2.50569        -1.863316     -0.013524     -0.544311
O       0.10834      5.66176     14.53468        -1.441000      0.114121     -0.313695
O       3.96497      5.88532      6.30867        -0.256842     -0.763374      0.680656
O       0.10001      5.86724      6.44860        -0.913035     -0.042951     -0.046591
O       3.92257      5.91186     10.46625         0.094587      0.295822      0.057820
O       0.06930      5.93962     10.35651        -1.448230     -0.481421     -0.117550
O       3.80233      9.72156      1.64943         1.762918      0.963917      2.441276
O       3.87241      9.58717     14.79268        -1.004419      0.995389     -0.714039
O       0.09098     10.00577      1.87348        -3.299985      0.200262     -0.286739
O      15.60453      9.77625     14.74210        -0.731473      0.307152      0.228767
O       3.82584      9.94512      6.16574        -0.161782     -0.201738      1.074175
O       0.04500      9.86402      6.24768        -1.739914     -1.105501      0.035247
O       3.73390      9.87417     10.70624         1.335457     -0.666261     -0.460395
O      15.50346     10.07733     10.56991         1.447199     -0.105834     -0.831483
O       7.81963      2.08090      2.09026         0.255948     -0.229702      0.126097
O       7.88606      1.96442     15.08426        -0.389667     -0.753433     -1.492599
O       7.81118     13.57847      2.30324         2.184533      0.118986     -0.377699
O       7.86830     13.58020     14.80178        -0.874845     -0.114967      0.396869
O       7.71832      1.61819      6.46223         3.121609      0.845691      0.364525
O       7.78951     13.69066      6.20399         0.584470     -0.187763      0.245680
O       7.84610      1.90881     10.30907        -0.973950      0.354955     -0.512775
O       7.80138     13.56779     10.40824        -0.676654      0.093562     -0.246320
O       7.61971      5.75404      2.33197         0.847975     -0.182425      0.116977
O       7.86953      5.88040     14.24627         0.098338      0.368779      1.057192
O       7.83867      5.92591      6.28106        -0.331683      0.788217     -0.296074
O       7.86600      5.69230     10.98500         0.338300      0.778485     -1.560729
O       7.84392      9.41236      2.23007        -1.429803      1.406062      0.519592
O       7.77500      9.47379     14.61459         0.094782     -0.152051      0.358275
O       7.74617      9.44226      6.25241         0.092972      0.039368      0.087871
O       7.63522      9.36193     10.65934         1.788352      0.784201     -1.158713
O      11.74535      2.19321      2.04611        -1.093983     -1.159503      0.687299
O      11.79503      2.11834     14.37383        -3.125322     -1.116837      0.970130
O      11.94661     13.93406      2.53896        -0.716509     -1.058149     -2.250292
O      11.74293     13.72742     14.72062        -1.358147     -0.505586      0.672762
O      11.74577      2.34751      6.12641        -1.304164     -0.290477      0.213132
O      11.64068     13.52974      6.57969        -0.148903     -0.336159     -0.411430
O      11.63033      1.96911     10.58296         1.892657     -0.828888     -0.346941
O      11.43964     13.55806     10.45731         3.696786     -0.071301     -0.291270
O      12.01675      6.24815      2.39981        -3.105095     -0.828456     -0.342648
O      11.83658      5.95336     14.45445        -1.000182     -0.225582      0.480758
O      11.75655      5.54796      6.07406         1.010222     -0.424187      0.481240
O      11.86451      5.78388     10.38971        -0.921812      0.258933      0.460098
O      11.69855      9.49594      2.31047        -0.312565     -0.120710     -0.239768
O      11.62537      9.84859     14.55658         0.946186     -0.373961      0.209078
O      11.71063      9.80959      6.25159         0.816070     -0.149615      0.105452
O      11.83727      9.92455     10.47902        -1.678474     -0.154430     -0.431262
O       2.02870      3.84349      1.90146         0.204901     -0.477514      0.449752
O       2.00782      3.93658     15.23852        -0.380855     -2.117861     -0.298650
O       1.64075      0.00388      2.47429        -0.137143     -1.385550     -0.446837
O       1.78939     15.59030     14.72254        -0.089458     -1.064728     -1.543934
O      13.71312      3.98483      2.10786        -0.385491      0.537018      0.321611
O      13.50500      3.80470     14.73307         0.600466      2.080040     -0.077403
O      14.15132      0.00903      2.02318        -1.405547     -1.608177      0.314727
O      13.66085     15.57759     14.52733         0.327204      0.435101      0.710871
O       2.08797      3.99242      6.07267        -0.957910      0.825170      1.065960
O       2.32313      0.03570      6.21145        -1.010348     -1.098166      0.529515
O      14.20672      3.80703      5.88400        -2.286377      0.374229      1.627438
O      13.49562      0.11326      6.23074         0.411339      0.527046      0.694268
O       2.19153      3.90777     10.48016        -0.768895     -2.570891     -1.111731
O       2.09410     15.55027     10.47313        -0.712263      1.943836      0.204257
O      13.70005      3.81144     10.61597         0.105830      0.503356     -0.620211
O      13.63970     15.54926     10.55638        -0.057954      0.024375     -0.506139
O       1.90852      7.76702      1.83796        -0.317776      1.807449      2.196104
O       2.01035      7.73266     14.55544        -0.449137      0.867711     -0.370059
O      14.25849      7.70786      2.02721        -0.585510      1.910537      1.391447
O      13.86147      7.76274     14.53533        -0.891524      0.743359      0.153770
O       1.95625      7.82529      6.18612         0.092992      1.645586      0.594576
O      13.41112      7.55039      6.21597         1.187732      2.524903      0.095404
O       1.77064      7.90043     10.39343         0.833638      0.846176      0.006341
O      13.61499      7.83220     10.31172         0.178172      0.180789      0.392019
O       2.26976     11.89691      2.07302        -0.051895     -1.947782     -0.764124
O       1.78740     11.60418     14.15039         1.355186      0.665594      1.090213
O      13.32580     11.59095      1.90905         0.476414      0.560184      1.127907
O      13.59509     11.71776     14.46798         0.686556     -0.985063      1.295704
O       1.85248     11.77744      6.17815        -0.736498     -0.622281      0.822388
O      13.65161     11.65741      6.35768         0.366096     -1.692802      0.307768
O       2.14679     11.81620     10.57798        -0.063964     -2.023753      0.016713
O      13.62449     11.80490     10.21292        -0.664408      0.038879     -0.360139
O       5.54654      3.77771      2.20663         0.786908     -0.286008      0.035621
O       5.92814      3.82608     14.72764         0.292293     -0.748402      0.254015
O       5.96538      0.00830      2.53805         0.066070     -0.428583     -1.513769
O       6.08225     15.57696     14.77517         0.225819     -2.192957      0.067861
O       5.97057      3.90426      6.32075         0.463466      0.914620      0.604902
O       5.68690     15.52329      6.47390        -0.681202     -0.794745     -0.938137
O       5.80945      3.87140     10.41349         0.256190     -1.200833      0.365061
O       5.89247      0.01060     10.69515         0.166756     -0.699030      0.281618
O       5.51003      7.70537      2.36116         0.729277      2.673139      0.639647
O       5.74385      7.62162     14.41742         0.080829      0.517214      0.097490
O       5.62745      7.74693      6.35499         0.477280      2.363811     -0.170342
O       5.61739      7.75884     10.89281         0.024936     -0.177929     -0.906472
O       5.71483     11.71608      2.27979         0.205470     -0.528430     -0.135131
O       5.75024     11.60104     14.79487         0.330265      0.121265     -0.002677
O       6.07755     11.68801      6.42587        -0.426255     -1.614953     -0.083104
O       5.68272     11.80208     10.45186         0.417770     -1.038770     -0.536043
O       9.87626      3.98731      2.27631         0.102666     -1.964638      0.643615
O       9.73254      4.08157     14.44580         0.615267     -2.025412     -0.167662
O       9.81019      0.10311      2.14608        -0.117256     -0.534396      0.288907
O       9.67859     15.56281     14.75465         0.161906      0.214413      0.358317
O       9.59202      3.97126      6.25978        -0.305630     -1.467457      0.851167
O       9.87127      0.01182      6.46001         0.263858      0.289312     -0.188493
O       9.84187      3.89246     10.68721        -0.400605      0.715760     -0.526881
O       9.71767     15.50359     10.39737         0.354725     -0.074204     -0.440598
O       9.63858      7.53720      2.30284         0.414353      0.468751     -0.497405
O      10.05580      7.76257     14.99018        -1.053144      0.783686     -0.665895
O      10.04771      7.69816      6.49764        -0.237292      1.515542      0.062125
O      10.01938      7.71669     10.51081        -0.078461      1.002944     -0.232252
O       9.92911     11.64354      2.31264         0.138130      0.510919      0.563869
O       9.44411     11.49500     14.70081         0.912535      2.002813      0.032853
O       9.68269     11.53307      6.06643         0.294148     -0.992885      0.680878
O       9.51218     11.56664     10.82292         0.410072     -0.009426     -1.671765
