  # total energy = -7824.46987314 
CRSYTAL
PRIMVEC
    15.6080000000000005    0.0000000000000000    0.0000000000000000
     0.0000000000000000   15.6080000000000005    0.0000000000000000
     0.0000000000000000    0.0000000000000000   16.6239999999999988
PRESSURE
5.49805 5.07271 0.639121 0.233744 0.02781 0.294006
PRIMCOORD
320 1
Pb       4.33123      4.06924      4.28847        -0.530330      0.009782      0.636976
Pb       4.14023      3.74500      0.09369        -0.774797      0.525286     -1.019023
Pb       4.34756      0.14015      4.28035        -1.159027     -0.911398      0.383746
Pb       3.88569      0.13243      0.59722        -0.714091     -0.505723     -2.305840
Pb       0.52651      4.06918      4.27771        -1.538791     -2.630729     -0.647959
Pb       0.09435      3.94422      0.40098        -0.097762     -2.261188     -1.912482
Pb      15.30233      0.01490      4.26239         2.059500      0.427142      0.836172
Pb       0.13350      0.04320      0.12086         0.307988      0.343287     -0.833199
Pb       4.00889      3.66422      8.23289        -0.204395      1.328203     -0.151835
Pb       3.94790      0.03298      8.92514        -0.339086     -1.098380     -1.521809
Pb      15.45087      3.75674      8.20594         0.404501      1.473904      0.503192
Pb      15.02495     15.42430      7.96216         1.366484      1.092329     -0.296732
Pb       3.70910      3.85218     12.25041        -0.678424      1.455056      0.915487
Pb       3.69516      0.51853     12.43081         0.200318     -1.979245      0.268318
Pb       0.27967      3.81764     12.61000        -0.232777      0.520429      0.254509
Pb      15.15100     15.31834     11.88397         1.294623      0.665389      1.219778
Pb       3.88059      8.29882      4.19691        -0.205635     -1.290604      0.005381
Pb       3.95078      8.00306      0.11185        -0.721646      0.416351     -0.527778
Pb       0.27094      7.61349      4.22529        -2.276009      1.540748     -1.958639
Pb       0.18397      8.22650     16.54500         0.333257     -0.220427      0.359289
Pb       4.20796      7.87112      9.00680        -0.532933     -0.689060     -1.491556
Pb       0.06300      7.78078      8.72523        -0.857316     -0.533898     -0.708357
Pb       3.75644      7.37454     12.99215         0.257093      1.104602     -1.754021
Pb       0.07336      7.45320     12.72398         0.092326     -0.435211     -1.040972
Pb       3.56685     12.16874      4.93012         0.951279     -0.990246     -2.649539
Pb       3.27935     12.05699      0.50557         1.107146     -1.885387     -3.276428
Pb       0.18167     11.62734      4.32753        -0.310262      0.328698      0.275898
Pb      15.39095     11.78311     16.31297         0.646774     -0.470943      1.313007
Pb       3.60323     11.49087      8.56802         1.600479      0.843137     -1.645599
Pb      15.31114     11.52870      8.21431         0.729377     -0.771441     -0.376936
Pb       4.36896     11.86538     12.70316        -1.618226     -0.476622     -1.608439
Pb      15.11185     11.90676     12.45546         1.604770     -0.986386     -0.117900
Pb       8.02751      3.99433      3.61665         0.206276      0.049768      1.280487
Pb       7.77421      3.93333     16.44525         0.828876     -0.095436     -0.221268
Pb       8.47014     15.57820      4.12230        -2.268429     -0.219068      0.212244
Pb       7.58977     15.29247     16.58909         0.064492      1.404446     -0.554497
Pb       7.48616      4.04021      8.06720         0.669488     -0.043991      0.589493
Pb       7.64868      0.01788      8.41084         0.026797      0.238323     -0.450317
Pb       7.96538      3.92743     12.49477         0.676036      0.362316      0.002008
Pb       8.13373      0.23411     12.96751        -0.363923      0.026430     -1.191996
Pb       7.50290      7.88166      4.06341         1.187743     -0.362036     -0.188847
Pb       7.49875      7.90410      0.29071         1.665247      0.503477     -0.888643
Pb       7.72430      8.07495      8.33798         0.683007     -1.275605     -0.381851
Pb       7.60663      7.94912     12.72074        -0.652158     -0.895553     -0.665453
Pb       7.63818     11.89060      4.05751         0.107841      0.280695      1.102906
Pb       7.95688     12.03344      0.03252        -0.034155     -1.827535     -0.170341
Pb       7.60323     11.40757      8.07714        -0.388692      1.404244      0.055637
Pb       8.05582     11.47771     12.91812        -1.127941      1.375044     -0.988656
Pb      11.41688      3.64454      3.89011         0.621039      2.007142      0.099342
Pb      11.96202      3.75506     16.54612         0.395533     -0.449347      0.465813
Pb      11.80199     15.16162      4.42525         0.048995     -0.077499     -0.843194
Pb      12.34099     15.60678      0.47271        -0.545135     -0.994986     -1.091609
Pb      11.58321      4.13349      8.68053         0.089718     -0.172396     -1.607942
Pb      11.61768      0.39674      8.12466        -0.372372     -0.877479     -0.075901
Pb      11.56641      3.32360     12.60475         1.264164      2.285984     -0.886375
Pb      11.46535     15.08088     12.15488         0.865339      1.120146      0.611545
Pb      11.07741      7.47570      4.25446         0.816972     -0.588143     -0.048701
Pb      12.16313      7.89653      0.10190        -2.241692     -1.329465     -0.449594
Pb      12.07982      7.45379      9.05764        -0.346792      1.910144     -2.090764
Pb      11.50037      7.59863     12.84689        -0.112524      1.231576     -2.455593
Pb      11.31855     11.38237      3.98279         1.181358      1.739543     -0.065463
Pb      11.92924     11.44629     16.25796        -0.787507     -0.194566      1.157093
Pb      11.04310     11.61477      8.29812         2.583352     -1.565486      0.304589
Pb      11.59274     11.50852     12.26711         0.831594      0.247251      0.118684
Ti       2.01252      2.11102      2.15091        -1.750202     -0.520691      0.625874
Ti       2.09414      1.98906     14.57235        -1.338982     -0.869751      1.759764
Ti       1.80614     13.74535      2.25500         0.981671      0.990954      2.204237
Ti       1.87483     13.66547     14.53155         0.960185      0.646683     -0.280994
Ti      13.52312      1.87100      2.45191         1.135471      0.855615     -1.971456
Ti      13.85286      1.83552     14.29563         0.022821     -0.567644     -0.795351
Ti      13.83205     13.33715      2.42115        -2.384328     -0.388473     -1.326094
Ti      13.69671     13.71598     14.70187        -0.236781      1.548826     -0.090843
Ti       2.22013      1.92804      6.45864        -6.797708     -1.281475     -2.864515
Ti       1.67332     13.80699      6.52012         1.697942      2.050291     -1.085918
Ti      13.54269      2.37227      6.24601         0.517353     -0.048463     -0.106155
Ti      13.43782     13.23708      6.18583         0.988051      0.586858     -0.739717
Ti       1.68253      1.68297     10.29547         0.037322      1.088882      0.231818
Ti       1.96221     13.39839     10.32831        -2.669935      1.000122      0.755430
Ti      13.47442      1.87944     10.20596        -0.028800     -0.120725      1.053102
Ti      13.59429     13.35244      9.95443        -0.839207      1.143367     -0.714184
Ti       2.13800      5.91842      2.03285        -0.824088      0.070153      0.542574
Ti       1.87853      5.86100     14.89486         0.425808     -1.296968     -2.611552
Ti      13.85171      5.64906      1.86539        -1.113962      1.542306      0.948652
Ti      13.69612      5.61307     14.51451         0.541119     -0.687852     -0.843705
Ti       1.72689      5.85602      6.12146         1.846299     -0.665489      2.022405
Ti      13.42860      6.04946      6.00455        -0.494573     -4.828373      3.062673
Ti       1.86136      5.80293     10.30458         2.330770     -1.039428      0.358671
Ti      13.60364      5.45378     10.63054         3.138161      1.785808      0.998998
Ti       1.87536      9.85281      2.28865        -0.463110      0.130446     -0.284061
Ti       1.92939      9.86183     14.17577         0.732485     -1.725072     -0.807048
Ti      13.75690      9.42344      2.31301        -0.630144      0.157453      0.063541
Ti      13.70859      9.45836     14.31691        -0.358393      1.799303     -1.380520
Ti       1.76944      9.56491      6.43824         1.865965      1.107198     -1.978358
Ti      13.44102      9.52329      6.14361         0.074815      0.648049      1.115861
Ti       2.18738      9.57894     10.42147        -3.860102      0.765666      1.918604
Ti      13.80562      9.70140     10.34350        -0.073196     -2.012742     -0.100085
Ti       5.73627      1.95471      2.11925         2.875068     -0.059639      1.060396
Ti       5.91923      2.14193     14.33285         0.217904      0.657795      1.008535
Ti       5.76302     13.69598      2.04275         0.402432     -0.210456      1.874510
Ti       5.65981     13.97293     14.34192         0.781223     -0.697617     -1.408013
Ti       6.03657      1.83112      6.25552         0.886208      0.948185     -1.080181
Ti       5.82759     13.82341      6.26087         0.665209     -1.296801     -0.233264
Ti       5.80653      2.15691     10.39828         2.305607     -2.003423     -0.341817
Ti       6.02171     13.65635     10.22687        -0.117497      1.206473     -0.256522
Ti       5.92149      5.83487      1.96797        -0.071036      0.929494      1.337176
Ti       5.97232      5.89605     14.50615         0.092565     -0.147625     -1.031658
Ti       5.63791      6.16971      6.16981         0.658957     -2.463847     -0.782026
Ti       5.66179      5.83996     10.51675         1.106144      1.608456      0.572765
Ti       5.64463     10.06080      1.98380         0.883131     -1.492515      0.176338
Ti       5.74931      9.93296     14.69390        -0.877023     -0.172123     -1.421006
Ti       5.69529      9.79608      6.07368         0.637402      1.422872     -0.478363
Ti       5.98190      9.98036     10.38452        -0.301834     -1.380709      2.649667
Ti       9.71607      1.69865      1.78534        -0.224280      2.585368      0.981836
Ti       9.99371      1.86184     14.83071         0.243500      0.043151     -3.594453
Ti       9.76947     13.67866      1.77431         1.902011     -2.148994      1.647276
Ti       9.97820     13.57686     14.52088        -0.284011      0.684014     -0.308414
Ti       9.85131      2.01512      6.14927        -2.665005      0.243605     -0.449067
Ti       9.66586     13.36295      6.13888        -1.376330      2.395821     -1.190557
Ti       9.61324      2.01375     10.16404        -0.311643      0.501099      1.164928
Ti       9.74932     13.64810      9.97387        -0.600537      0.722488      0.417680
Ti       9.91232      5.93352      1.76149         0.309694     -1.010786     -2.462393
Ti       9.90487      5.65019     14.47976        -1.728594      0.596954     -0.332316
Ti       9.61876      5.72976      6.57355         0.848599      1.440462     -2.660304
Ti       9.44172      5.95627     10.35676        -1.385599     -1.233904      1.968678
Ti       9.79225      9.62657      2.09494        -0.861147      2.089927     -2.745553
Ti       9.55903      9.54040     14.65540         3.163647     -1.672268      3.591351
Ti       9.68667      9.66731      6.12035        -1.060264     -2.236762     -1.302942
Ti       9.80902      9.79595     10.62795        -0.050084     -0.959284     -2.338110
O       2.13637      2.34914      0.17630        -0.169718     -1.200634      1.141561
O       1.67458      1.55503     12.86713         1.829701      0.761347     -1.679729
O       1.45031     13.76038      0.49211         1.560290     -1.601331     -1.760672
O       1.56030     13.46903     12.82729         1.018931      0.447535     -0.800305
O      13.79806      1.85597      0.61138        -0.507514      0.270399     -0.526055
O      13.34444      1.52515     12.42173         0.903754      0.447490     -0.018798
O      13.68262     13.52071      0.34416         0.489102      0.526831     -0.755214
O      13.64628     13.55793     12.84673        -0.436103      0.246667     -0.028308
O       1.85253      1.67136      4.54641         0.432256      1.117408     -0.672593
O       1.90526     13.89682      4.53064        -0.303050     -0.844339     -0.561417
O      13.48967      2.12387      4.37803         0.220692     -0.298400     -0.400467
O      13.84356     13.09773      4.36572        -0.345577      2.134984     -1.383657
O       1.82906      1.85153      8.49494         0.723116      0.496404      0.789422
O       1.67590     13.80035      8.64688         0.575093      0.367694     -2.827944
O      13.52637      2.03332      8.33264        -1.522420     -0.537238      1.635875
O      13.43376     13.19106      8.10500         0.345541      0.415897      2.231499
O       1.84654      5.56597      0.12745         0.403871      0.748951     -0.269686
O       1.93403      5.72218     12.76785         0.639799      0.889089      0.904237
O      13.72214      5.61932     16.57851        -0.081415      0.844213      0.924329
O      13.75659      5.64074     12.61691         0.659686      0.201926     -0.163445
O       1.82744      6.00222      4.03594         0.332503     -0.455036      1.328382
O      13.50135      5.74653      4.36676         0.224293      0.664516     -3.124801
O       1.96059      5.76204      8.47425        -0.041260     -0.401930     -0.786167
O      13.86090      5.76065      8.80605        -0.149676     -0.163556      0.415683
O       1.87039      9.89334      0.49151        -0.155241     -0.518782     -1.521943
O       2.05028      9.72287     12.29684        -0.996609      0.239822      1.486987
O      13.57519      9.50947      0.33903         1.673196      1.447662      0.275828
O      13.69794      9.96330     12.43573         0.036123     -1.167099      1.809283
O       1.97949      9.66556      4.25728        -0.190779     -0.212723      0.523824
O      13.36183      9.20613      4.41590         1.260087      0.582096     -1.624682
O       2.24584      9.36841      8.11559        -0.167012      0.703211      2.509261
O      13.64748      9.60065      8.38610         0.334917      0.497880      0.792039
O       5.86928      1.96654      0.33994        -0.266541      0.304755     -0.731468
O       6.06892      2.26123     12.57268        -0.938074     -0.722882     -1.035436
O       5.93089     13.80095      0.20002        -0.067285     -0.509566     -1.562614
O       5.51592     13.99382     12.36218         1.112244     -1.003592      1.437849
O       6.18023      1.79405      4.23713        -1.517863      0.195888      0.701376
O       5.88586     13.85528      4.21308        -0.173170      0.163924      0.017939
O       6.01406      2.13487      8.40984        -1.495953     -0.514109      1.878644
O       6.06193     13.77397      8.24383        -1.312835     -0.552498      1.020772
O       6.05921      5.85773      0.18799        -0.429472      0.395073     -0.083049
O       5.81803      6.01674     12.64024        -0.107157     -0.868431      0.466844
O       5.92038      6.17593      4.23809        -0.156399     -0.809262      0.230763
O       5.31715      5.75562      8.69077         0.324315     -0.160789     -0.904103
O       5.63398     10.00728      0.03064         0.293325     -0.389899      1.429709
O       6.24554      9.93462     12.71901        -1.688245     -0.144357      0.347943
O       5.96014      9.74893      4.17491        -0.512055      0.066589      1.237611
O       5.82930      9.78259      8.58899        -0.062063     -0.144622     -1.602380
O       9.82800      2.16656     16.58931        -0.105975     -0.800850      2.216394
O      10.05715      1.89606     12.78340        -2.052891     -1.515007     -1.044298
O       9.71911     13.95879     16.59751        -0.427728     -0.957901      0.445676
O       9.70312     13.33312     12.61180         1.165307      1.425851      1.039009
O       9.70690      2.17007      4.13384        -0.196489     -0.981310      1.298438
O       9.75107     13.45586      4.21263        -0.421110     -0.056134      0.201149
O       9.56155      1.84117      8.38543         1.020773     -0.004408     -1.327305
O       9.88744     13.65405      8.09640         0.101995      0.638780      1.575308
O       9.66951      5.87614     16.36883         0.893625     -0.310711      2.077854
O       9.94815      5.57945     12.38873        -1.228834      0.900538     -0.291608
O       9.49712      5.70722      4.58352         0.862439      0.940079     -0.076940
O       9.38424      5.98766      8.41070         0.788551     -0.350246      1.809405
O       9.84776      9.38424     16.57139         0.866059      0.451420      0.115377
O       9.88561      9.76777     12.76908        -0.621336      0.745501     -2.036087
O       9.45189      9.84598      4.19742         0.557636     -0.114212      0.160520
O       9.52396      9.51221      8.81743         0.379075      0.705729     -0.774038
O       3.91690      2.40505      2.23824         1.260403     -2.244818      0.223382
O       4.00568      2.08000     14.43432         0.456511     -0.512327      0.169272
O       3.93173     13.62784      1.92334        -0.114517      0.354665      1.062149
O       3.88396     13.29934     14.42400        -0.791735      2.593501      1.091547
O       0.14132      1.93562      2.36430        -0.243537      0.117183      0.100159
O       0.05433      1.71307     14.42875        -1.026883      0.906705      1.527820
O       0.06483     13.67931      2.45961        -1.264696      1.571664      1.306092
O       0.06753     13.81501     14.83837        -2.020590     -0.896286      0.671965
O       3.84205      1.86882      6.64531         6.064675     -0.424079      0.135727
O       3.95104     13.84826      6.26316        -0.657884     -0.192006      1.129421
O      15.28265      2.06939      6.79099         0.588422     -0.651137     -2.075890
O      15.53580     13.57159      6.39006        -1.658618      0.191183      0.443459
O       3.82330      1.98748     10.58137         1.240725     -0.270454     -0.459618
O       3.69330     13.45972     10.29963         3.442804      0.949963     -0.085963
O      15.51298      1.59846     10.31020        -1.807328      0.275680      0.288007
O      15.50970     13.50446     10.38431        -1.763994     -0.214601      0.492075
O       3.95216      6.04786      2.02302         0.834512     -0.188485     -0.085926
O       4.04078      6.00874     14.73281        -1.486623     -0.505546      1.293840
O       0.04145      5.20993      2.19958        -1.109052      2.794443      0.125022
O       0.08221      5.57106     14.41521         0.262456      1.022856      1.475767
O       3.79990      5.90208      5.78221        -0.712314     -0.260194      1.411363
O      15.48460      5.58164      6.45595         1.888686      0.711397     -1.167257
O       3.79970      5.89760     10.98742         0.042079     -0.826027     -1.211913
O       0.22074      5.75838     10.83824        -2.870440      0.572744     -0.375069
O       3.79946      9.65250      2.25184         2.619729      0.616884     -0.640335
O       3.82766      9.66533     14.62013         1.458512      0.233551     -0.116255
O       0.08633      9.60298      2.55436        -2.702799     -0.225735     -0.111854
O       0.06555      9.67096     14.66845        -1.464422      0.090815     -0.208320
O       3.84454      9.87443      6.08935         1.247547      0.242251      0.218216
O       0.04810      9.76757      6.39759        -2.344059      0.332940     -0.044451
O       3.87697      9.91037     10.63865         3.156915     -0.087169     -1.159473
O       0.12858      9.53752     10.26686        -0.538904      0.921929     -0.074728
O       7.86178      2.01183      2.14349         0.886531     -0.462069     -0.875708
O       8.02970      2.36688     14.59677        -1.442818     -2.275677     -0.006728
O       7.85796     13.67277      2.10930         1.783731      0.331827     -0.748256
O       7.71871     13.87479     14.50040        -0.203656     -0.286887      0.854514
O       7.76804      1.57047      6.60373         1.102405      1.183548     -1.721746
O       7.84564     13.83065      6.22961         1.139809      0.070247     -0.157193
O       7.93774      1.69803     10.69339        -2.183347     -0.246637     -0.146889
O       7.83092     13.89654      9.99399         1.178874     -1.354311      1.947595
O       8.09278      5.83119      2.08717        -3.523210      1.393132      0.181286
O       7.80543      5.64863     14.28301         0.576915      0.386483      0.835003
O       7.41731      5.78887      6.64272         0.359319      1.420412     -0.416992
O       7.54452      5.95560     10.45552         2.712563     -0.021290      0.176725
O       7.98631      9.67358      1.63854        -1.626492      1.272816      1.371023
O       7.86127      9.99563     14.74243        -2.356360     -0.234137      0.531548
O       7.72314      9.68738      6.39887        -1.673458      0.015354      0.576518
O       7.73031     10.02972     10.64632         1.593739     -0.918911      0.117274
O      11.58974      2.10522      2.02438         0.614241     -0.616628      0.722746
O      11.91263      2.20643     14.60559        -1.070121     -0.715475      1.804073
O      11.81201     13.51509      2.49475        -0.174940     -0.101265     -0.862174
O      11.86771     13.65430     14.96335        -1.736568     -0.657626     -0.789183
O      11.54055      2.36900      6.40555         1.128890     -1.694036      0.485752
O      11.66633     13.22479      6.08172        -1.466024      0.363316     -0.040019
O      11.55805      2.22623     10.26055         1.618546     -0.968085      0.182770
O      11.58156     13.11598     10.40094         1.599540      1.525318      0.030270
O      11.65922      6.33728      2.16306         0.404233     -1.912354     -0.002511
O      11.76986      5.93550     14.10727         0.586445     -1.779102      3.603664
O      11.58572      5.75958      6.76961        -0.941942      1.058932     -0.691754
O      11.87593      5.72054     10.44136        -2.778002     -0.782530      0.645881
O      11.79168      9.92669      2.32452         1.070370     -1.629226     -0.640268
O      11.81619      9.39766     14.67648         1.207709      0.605145     -0.247229
O      11.51486      9.95920      6.05165         0.272749     -0.936583      1.296824
O      11.82349      9.92757     10.42598        -2.361446     -0.213818      0.737295
O       1.99672      3.95457      2.40491         0.915611     -0.415194      0.159255
O       2.17267      3.83219     14.54301        -0.781405      0.678054      0.180836
O       2.30699     15.57864      2.16664        -0.654306      1.943898      0.392880
O       2.05999     15.59169     15.30366         0.560398     -0.431613     -1.288538
O      13.36584      3.99636      2.14322        -0.468478     -1.887715      0.415700
O      13.81611      3.77731     14.84060        -0.284682     -0.087125     -0.677213
O      13.59851     15.57755      2.50461         0.161649      0.486888      0.103790
O      13.65205      0.07419     14.87513        -0.072566     -1.554007      0.352869
O       2.15905      3.82683      6.09940        -0.674709      2.091888      0.867507
O       1.68516      0.13030      6.49156        -0.438688     -2.057800      1.125014
O      13.43651      4.11515      6.43247         0.735824     -1.322967      0.539755
O      13.37028     15.44913      6.25310         0.289944     -0.125423      0.284993
O       1.80557      3.75127     10.90825         0.857480     -1.039497     -1.332927
O       1.86118     15.47919     10.85427         1.059311      0.660237     -0.918568
O      13.77875      3.63806     10.59091         0.233648     -0.518752     -0.271779
O      13.47195     15.23234     10.16483        -0.767763      1.521539      0.136102
O       1.72934      7.71703      1.89649         0.673768     -0.616086      0.658249
O       1.88179      7.92329     14.68800         0.044138     -2.323532      0.798770
O      13.76769      7.53563      2.08136         0.872812      2.599324      0.263883
O      13.96549      7.61218     14.57291        -0.659216      0.731311      0.034740
O       1.48685      7.76826      6.02899         1.963996     -2.009909      1.615703
O      13.60078      7.65139      6.58231         0.465598      4.063193      0.615647
O       2.07326      7.72642     10.28463        -0.103505     -0.096467      0.437671
O      13.73900      7.80507     10.70350        -0.231824     -0.088780     -0.575191
O       2.02761     11.80704      2.26393        -0.778331     -0.556019      1.654432
O       1.89348     11.45342     14.80469        -0.286568      3.959552      0.349522
O      14.26758     11.66046      2.15546        -1.144783     -1.928282      0.272198
O      13.68562     11.50973     14.68687         0.268700      0.666084      0.188672
O       1.93523     11.87851      6.39799        -0.277173     -1.350365      1.203642
O      13.79103     11.46953      6.08594         0.047159     -1.900680      1.160369
O       1.97928     11.56026      9.95605        -1.674912     -1.283970      1.138549
O      13.76627     11.61910     10.40954         0.393262     -0.337112      0.543914
O       5.77122      4.01663      2.24458         1.046775      0.409256     -0.110350
O       5.95826      3.97814     14.92762        -0.892054     -0.468260     -0.176696
O       5.79923     15.52184      2.16339        -0.342480      2.824171      0.141181
O       5.96908      0.28632     14.53910        -0.126501     -1.894419      0.453023
O       5.90086      3.77015      6.25471        -1.504473      0.015171      0.120906
O       5.66961      0.00380      6.45854         0.215274      2.110277     -0.088975
O       5.93577      3.92865     10.46244        -0.526058     -0.756252      0.379127
O       5.89850      0.01951     10.21455        -1.167186      0.703085      0.241022
O       5.99373      8.03317      2.25156        -0.382153     -0.370017     -1.555313
O       5.94535      7.88151     14.54796         0.514885      0.740215      1.040428
O       5.42480      7.87893      6.50408         1.139943      2.086570      0.010816
O       5.91208      7.80306     10.61464        -0.850483      1.186004     -0.453004
O       6.09933     11.82395      2.43952        -1.488660     -1.777872     -1.759468
O       5.73343     11.87164     14.42277         2.050707     -0.742661      1.110858
O       6.08298     11.91637      6.02654        -0.813053     -2.877269      1.000017
O       5.86404     11.82515     10.16075        -0.283218      0.159849      1.019902
O       9.86126      4.09181      2.06649         0.443645     -0.511357      0.140366
O       9.82804      3.86263     14.46863         1.271195      0.257005      0.725484
O      10.15243     15.57983      2.10544        -1.420300     -0.578849      0.073828
O       9.99568     15.60720     14.43261        -0.543645     -0.472870      0.805041
O       9.63724      3.92475      6.36527        -1.347306     -1.587127      0.756644
O       9.97697     15.56269      5.81574         0.357029      1.162903      1.888691
O       9.26231      3.87595     10.43238         1.741363      0.197774     -0.969611
O      10.14251     15.53652     10.39699        -0.762226     -1.002546     -0.674956
O       9.87679      7.88770      2.28464        -1.050579     -1.656304      0.301270
O       9.50998      7.69087     14.53184         0.460858      0.559166     -1.413346
O       9.40553      7.80250      6.31180         0.995778      0.850835      0.116436
O       9.87060      7.71347     10.64640        -0.324738      0.952413      0.198174
O       9.93862     11.58355      1.69510        -1.062075      2.494008      0.391061
O       9.71744     11.74758     14.77405         0.741540      0.295089      0.507914
O       9.44921     11.57717      6.50991         0.105931     -0.288813     -0.328486
O       9.66642     11.74312     10.25525        -0.652578     -0.841441      0.609693
