  # total energy = -7866.46177944 
CRSYTAL
PRIMVEC
    15.6080000000000005    0.0000000000000000    0.0000000000000000
     0.0000000000000000   15.6080000000000005    0.0000000000000000
     0.0000000000000000    0.0000000000000000   16.6239999999999988
PRESSURE
1.15983 0.736687 2.07785 -0.289595 -0.143 0.027517
PRIMCOORD
320 1
Pb       3.93319      3.89722      4.15135        -0.446362     -0.030597     -0.767595
Pb       3.91117      3.84552     16.59884        -0.034821      0.029499      0.428439
Pb       3.94758     15.59687      4.12495        -0.961053      0.066472     -0.379115
Pb       3.89799      0.01604      0.01981        -0.754359      0.319788      0.726505
Pb       0.02760      3.87312      4.14082         0.274983      0.458171     -0.140040
Pb      15.60378      3.88183     16.61182         0.088777     -0.280843      0.867011
Pb      15.56942     15.60700      4.12759         0.286331     -0.000801     -0.378612
Pb      15.59743     15.60630     16.59179         0.414703      0.169740      0.858339
Pb       3.90857      3.86026      8.26726        -0.645264      0.059438     -0.351040
Pb       3.89104     15.60376      8.35529         0.046742     -0.308294     -0.489117
Pb      15.58675      3.85596      8.29601         0.147238     -0.310588     -0.190190
Pb      15.54453     15.57815      8.26448        -0.182787      0.806636     -0.311348
Pb       3.85304      3.87002     12.40707        -0.240119      0.102718      0.560446
Pb       3.87080      0.04272     12.42115         0.230168     -0.321010      0.653467
Pb       0.01250      3.89329     12.42886         0.383752     -0.896266      0.450999
Pb      15.52633     15.53946     12.35872         0.442599      0.648247      0.290859
Pb       3.88804      7.85890      4.13142         0.027876     -0.458991     -0.296980
Pb       3.90784      7.81196     16.59440         0.358384      0.011384      0.047342
Pb       0.00911      7.77299      4.12903        -0.283096     -0.438142      0.023168
Pb      15.60559      7.84402     16.57847        -0.653979     -0.057532     -0.271941
Pb       3.91972      7.80412      8.33633         0.650820      0.622355      0.869235
Pb      15.60434      7.78829      8.32971        -0.212829     -0.121420     -0.758783
Pb       3.87113      7.74541     12.48978         0.123722      0.420732     -0.529259
Pb      15.59190      7.76321     12.43275        -0.413542     -0.573039      1.234694
Pb       3.85494     11.73327      4.20389         0.415501     -0.213469     -0.491558
Pb       3.82209     11.71365      0.02305         0.345482     -0.449926     -0.192513
Pb       0.01651     11.67235      4.11747        -0.192055      0.158321      0.559614
Pb      15.56729     11.67017     16.57060        -0.469557      0.571018     -0.434114
Pb       3.87335     11.65350      8.25602         0.066744     -0.055603      1.057336
Pb      15.57360     11.67631      8.26201        -0.229298     -0.203096     -0.003932
Pb       3.97769     11.72402     12.43097        -0.018303     -0.579612      0.350372
Pb      15.55281     11.68611     12.44184        -0.575216      1.421956      0.903372
Pb       7.84716      3.88898      4.04367         0.070044      0.614549      0.426100
Pb       7.80351      3.90200     16.55733        -0.646188     -0.053531      0.838548
Pb       7.86916     15.59274      4.10954         0.006128     -0.767678      1.027181
Pb       7.74710     15.54743     16.57896         0.492353     -0.463828      0.082459
Pb       7.72513      3.91316      8.20307         0.782344     -0.253215      0.819517
Pb       7.76914     15.59610      8.29222         0.007109      0.213746      0.376714
Pb       7.79632      3.89353     12.42626         0.449286     -0.453482      0.543203
Pb       7.85765      0.04811     12.46651        -0.475596     -1.432417      0.745968
Pb       7.75668      7.80336      4.11801        -0.335286     -0.389641      0.120659
Pb       7.75236      7.80739      0.01696         0.453982     -0.364834     -0.474655
Pb       7.77315      7.82479      8.28170        -0.668474      0.212665     -0.119757
Pb       7.77741      7.83837     12.44090        -0.229889     -0.486806      0.075964
Pb       7.76936     11.70713      4.09990         0.016098      0.183158      0.925250
Pb       7.81378     11.77026     16.59315         0.036476      0.186276     -0.681163
Pb       7.74971     11.64743      8.21948         0.536403      0.047096      0.298121
Pb       7.80034     11.63292     12.48403         0.290988      0.990588     -0.298971
Pb      11.62496      3.88069      4.09469        -0.241049     -0.692763      0.335710
Pb      11.70262      3.85663     16.57905         0.202014     -0.314415      0.577620
Pb      11.67850     15.57280      4.15732         0.350640     -1.072580     -0.256461
Pb      11.73547     15.59520      0.02310        -0.047903     -0.287025     -0.185048
Pb      11.65043      3.91952      8.32801         0.017729      0.143214     -0.026529
Pb      11.66494      0.02103      8.25471         0.344870     -0.355183     -0.289920
Pb      11.66326      3.81993     12.41928        -0.344747     -0.305192     -0.138245
Pb      11.66512     15.52908     12.41432        -0.371693      0.324239      0.579529
Pb      11.58899      7.74330      4.13895         0.670275      0.115046     -0.179479
Pb      11.73419      7.80261     16.58430        -0.163599      0.748769      0.389764
Pb      11.72346      7.74365      8.37197        -0.054468      0.843421     -0.707880
Pb      11.66534      7.77322     12.45791         0.307857      0.141431      0.943654
Pb      11.63190     11.63970      4.06249         0.169048      0.612770      1.323850
Pb      11.72480     11.63553     16.53460        -0.052014      0.045750      0.166280
Pb      11.61933     11.69131      8.27811        -0.573540     -0.401036     -0.229808
Pb      11.70852     11.66424     12.42740        -0.512422      0.199277     -0.081981
Ti       1.99418      1.94689      2.20545        -0.934762     -0.338823     -0.912822
Ti       1.93020      1.92567     14.72241        -0.676059      0.627977      0.085213
Ti       1.87622     13.62285      2.21326         1.270795      1.229568      0.253796
Ti       2.07064     13.80144     14.56296        -4.758955     -1.511861      0.582745
Ti      13.69138      2.03932      2.21927         0.031098     -1.482352      0.510734
Ti      13.61111      1.90379     14.72445         1.140582      0.632494     -1.083048
Ti      13.69046     13.63580      2.19587        -0.881700     -0.099727      0.696773
Ti      13.71964     13.73457     14.55560        -0.209779     -2.293723      0.747658
Ti       1.94979      1.92027      6.41479        -1.333130      0.803903      0.026057
Ti       2.01424     13.63285      6.44652        -1.709165      0.418819     -0.543943
Ti      13.53511      1.98828      6.27330         1.378682     -1.492652      0.505866
Ti      13.65218     13.62375      6.45658        -1.198831     -0.683115     -2.012982
Ti       2.04916      1.93308     10.42496        -3.823167     -0.029977      0.232416
Ti       1.89144     13.59797     10.49972         0.005439      0.751944      2.534559
Ti      13.70990      1.97339     10.53008         0.270763     -1.132198      0.080819
Ti      13.53722     13.71444     10.49515         0.395043     -1.088829      0.619001
Ti       1.96414      5.87207      2.12851        -0.043502     -1.305454      1.042443
Ti       1.90830      5.88084     14.81985        -0.146043     -1.417994     -0.716000
Ti      13.56261      5.83789      2.20773         0.876826      0.409530      1.554657
Ti      13.63606      5.81093     14.71725         0.572649      0.501598      0.670241
Ti       2.05368      5.90387      6.49574        -2.152383     -1.601785     -1.342542
Ti      13.63682      5.77711      6.32341         0.365727      0.217227      0.085488
Ti       1.90371      5.91006     10.51737         0.585517     -0.680856     -1.479773
Ti      13.56838      5.87284     10.54745         0.971374     -0.783936      0.624662
Ti       1.94982      9.75699      2.23132         0.219518     -0.561272      0.795503
Ti       2.00500      9.85716     14.69614         0.114825      0.186197      0.574275
Ti      13.61567      9.86372      2.21036        -0.185048     -1.678133      0.700053
Ti      13.62346      9.72875     14.61609        -0.402275      0.014325      1.512442
Ti       1.95090      9.70594      6.44875        -0.641337      0.443121      0.268392
Ti      13.66296      9.65713      6.34226        -1.560352      0.676694      0.628548
Ti       1.72927      9.83332     10.73588         2.650978     -0.664242     -2.990648
Ti      13.58462      9.69688     10.54789        -1.737531      1.567213     -0.242685
Ti       6.02222      1.82920      2.29507        -4.007297      1.634270     -1.311058
Ti       5.89187      1.78880     14.80153        -0.640961      1.740498     -2.076468
Ti       5.81061     13.70558      2.25113        -0.420212     -1.775513     -0.539004
Ti       5.72712     13.61719     14.80386         2.534436     -1.073302     -1.050894
Ti       5.79311      1.87453      6.29766         1.075117      1.600304      0.235536
Ti       5.78805     13.65869      6.45547         2.084577     -0.917591     -1.661794
Ti       5.64626      1.89060     10.44043         4.204207      0.040283      1.846161
Ti       5.76521     13.57716     10.64882         1.723585      0.168443     -1.466332
Ti       5.88444      5.77687      2.20781        -0.489490     -0.010942     -0.294384
Ti       5.77938      5.81413     14.67252         1.286023     -0.281370      1.373554
Ti       5.84191      5.77008      6.39663         1.355556      1.239569     -0.791861
Ti       5.89304      5.79067     10.55103         0.610289      1.135330     -0.773217
Ti       5.89673      9.81401      2.06270        -1.329821     -0.479965      2.465148
Ti       5.90202      9.70404     14.66793        -1.412351      0.861831      1.207300
Ti       5.72500      9.82135      6.32236         2.796585     -0.798777      1.073322
Ti       5.78425      9.67368     10.55292        -0.198335      0.288327     -0.071908
Ti       9.75519      1.78415      2.12616         0.771630      3.197524      1.053563
Ti       9.67286      1.90259     14.62066         0.688265     -0.025547      2.812204
Ti       9.72756     13.50912      2.17624         0.448650      2.095368      0.296686
Ti       9.76260     13.68656     14.73633        -0.552092     -0.773244     -1.845480
Ti       9.74574      1.96495      6.36238        -1.620403      0.607340      0.757196
Ti       9.68559     13.73909      6.42047         0.721621     -3.038709     -0.135082
Ti       9.72217      1.91446     10.49889        -0.114639     -0.149673      1.416308
Ti       9.71509     13.57546     10.52536        -1.591218     -0.308287      0.297840
Ti       9.76062      5.78564      2.09928        -0.239640      0.227194      1.869726
Ti       9.73636      5.82768     14.79501        -0.322270      0.676488     -0.614633
Ti       9.85213      5.83174      6.27961        -1.178896      0.251080     -0.064433
Ti       9.77536      5.92045     10.49270        -0.600131     -2.370660      1.662783
Ti       9.77115      9.65091      2.24033        -0.127823      0.817640      0.591300
Ti       9.70504      9.73011     14.57564         0.712366     -0.190566      2.948618
Ti       9.71605      9.61917      6.42335         0.819563      2.096657     -0.636396
Ti       9.74282      9.67789     10.52108        -0.641596      1.189265      0.541062
O       1.78164      1.64992      0.40275         1.068686      0.616950      0.139495
O       1.83133      1.94205     12.91677         0.708609      0.170876      0.827986
O       1.86397     13.92816      0.48868         0.365820     -1.081554     -0.715079
O       1.76981     13.78884     12.84600         0.769439     -0.358010     -1.051815
O      13.49050      2.07720      0.49953         0.455282     -0.930606     -1.191678
O      13.69237      1.81991     12.91079        -0.117669      0.494882      1.163373
O      13.66993     13.52225      0.47010        -0.145322      0.116798     -0.965696
O      13.61665     13.69786     12.75301         0.048424     -0.370527      0.868955
O       1.98250      2.10180      4.66418        -0.096629     -0.818244     -0.653622
O       1.76522     13.46739      4.73265         0.743371      0.812773     -1.605245
O      13.57089      1.99396      4.50624         0.204361     -1.083186     -0.515773
O      13.47935     13.54798      4.53307         1.000115      0.550602      1.551144
O       1.80020      2.01348      8.64584         1.319553     -0.606345      0.492810
O       1.90458     13.53191      8.80314         0.348078      0.288297     -1.780181
O      13.88824      1.83967      8.75588        -1.511028     -0.082515      0.378535
O      13.60060     13.66573      8.71449        -0.192059      0.416962      0.229148
O       2.04165      5.56548      0.36154        -0.245322      2.189466      0.636045
O       1.93538      5.69119     12.99679         0.169209      0.305667     -0.109285
O      13.61411      5.98902      0.47849         0.287243     -0.568732     -0.433039
O      13.66352      6.02567     12.95114         0.182445     -1.124826      0.020742
O       2.08474      5.92471      4.71493        -0.517057     -0.638631      0.193321
O      13.71852      5.63068      4.55756        -0.254402      0.692052      0.669023
O       1.78667      5.76407      8.65428         0.586870      0.753684      2.060597
O      13.56941      5.77358      8.79755         0.035008      0.312630      0.697731
O       2.11398      9.73641      0.48162        -0.636190     -0.247222     -0.891921
O       2.16459      9.82845     12.92555        -0.921407     -0.397992     -0.495155
O      13.37580      9.75466      0.50052         1.227378     -0.272871     -0.940164
O      13.58678      9.63082     12.87243        -0.117533      0.654180     -0.213795
O       1.91420      9.67826      4.70513         0.316187      0.623664     -0.362476
O      13.70757      9.73142      4.58037        -0.540531     -0.044776     -0.008325
O       1.83576      9.77698      8.75578        -0.542297      0.116816      1.295348
O      13.52988      9.73265      8.76754         1.011885     -0.641465      0.544445
O       6.12212      1.79898      0.47222        -1.181235     -0.234670     -0.174467
O       5.72052      1.98384     13.00192         0.313392     -0.611740      0.515557
O       5.72357     13.68483      0.41417         0.183099     -0.092824      0.942155
O       5.79527     13.69608     13.04069        -0.536503     -0.300382     -0.960893
O       5.80883      1.99337      4.50517        -0.091747     -0.404748      0.308157
O       5.92872     13.44318      4.63235        -0.803271      0.874279      0.331900
O       5.71414      2.04252      8.69897        -0.038207     -0.634534      0.140635
O       5.84563     13.61587      8.77465        -0.484312      0.420528      0.467244
O       5.79723      5.90364      0.42523         0.211460     -0.339130      0.048507
O       5.90084      6.06468     12.93843        -0.721641     -0.810563     -0.752472
O       5.95714      5.80910      4.58469        -0.575016     -0.264280      1.615967
O       6.02460      6.06495      8.74318        -0.828946     -1.530582      0.963265
O       5.89089      9.91399      0.32946        -0.151520     -0.961147      0.174612
O       5.88606      9.77500     12.92121        -0.331358     -0.589675     -1.197931
O       5.75804      9.82833      4.59666        -0.154093     -0.292750     -0.634207
O       5.83935      9.51297      8.80137         0.090245      0.971107     -0.279445
O       9.75285      1.81262      0.41201        -0.332850     -0.061041     -1.088044
O       9.72905      1.81382     12.93483         0.427415      0.704589     -1.207533
O       9.62910     13.61267      0.39295         0.307086      0.160465     -0.236142
O       9.59833     13.56798     12.91702         0.592737      0.338868      0.838006
O       9.71042      2.03135      4.62389        -0.497175     -0.253882     -0.897862
O       9.73170     13.63848      4.65895        -0.130102      1.056255     -0.888252
O       9.66329      1.89437      8.73871         0.573539     -0.025039     -0.360433
O       9.69585     13.45590      8.70373        -0.269374      1.356192      0.994460
O       9.68248      6.02437      0.37966         0.270234     -0.346768     -0.628840
O       9.68062      5.58942     13.02730         1.228244      0.681289     -0.643179
O       9.64472      5.75490      4.47977         0.548752      0.770703      1.336816
O       9.96502      5.64523      8.80962        -0.237985      0.584968     -0.598421
O       9.71205      9.82253      0.53211        -0.731876     -0.051805     -1.391289
O       9.81455      9.65139     12.88247        -0.388435     -0.049089     -1.437169
O       9.78383      9.85674      4.63371        -0.257114     -1.010562     -0.519241
O       9.85687      9.71432      8.81635        -0.834581     -0.175488     -1.788591
O       3.78522      1.93833      2.42438         2.160759     -0.731012      0.560274
O       3.91828      1.80861     14.86792        -1.040571      0.381088      1.204643
O       3.87087     13.76693      2.49948         1.151686     -0.826201      0.604758
O       3.78138     13.61666     14.79721         2.168472     -0.064711      1.102909
O       0.10664      1.76692      2.46031        -2.485235      0.509494      0.885001
O      15.56265      2.04675     15.09153        -0.049826     -1.266195     -0.341612
O       0.05763     13.60479      2.47656        -1.103697     -0.530619      0.640303
O       0.00635     13.26861     14.83321        -1.554469      2.120297      0.164040
O       3.93516      1.95493      6.70482        -0.693821     -0.129051      0.285370
O       3.93398     13.66717      6.68419        -0.835170      0.287713      0.396343
O      15.51624      1.86539      6.79762         0.735464     -0.029383     -1.240009
O       0.01469     13.48025      6.78049        -1.624575      0.939342     -0.109033
O       3.89597      1.91482     10.78235        -1.131088      0.496991      0.170761
O       3.88101     13.53721     10.86944        -0.981708      0.669826     -0.040905
O       0.04165      1.93035     10.88597        -0.715231     -0.327153     -0.201240
O      15.51109     13.52768     10.88276         0.341546      0.336423     -0.816576
O       3.84726      5.80283      2.54271         0.096542      0.207165     -0.021608
O       3.86256      5.69808     15.09900         0.943396      0.562579     -0.828441
O       0.04647      5.83344      2.62897        -0.544676     -0.122987     -0.522461
O      15.60115      5.75352     15.08522        -0.342710      1.027047      0.036484
O       3.83969      5.92262      6.82003         2.830792     -0.935891     -0.088167
O      15.43565      5.75479      6.86432         1.029493      0.921252     -0.688382
O       3.78651      5.77841     10.82935         1.120610     -0.317487      0.036484
O       0.09227      5.62287     10.87046        -1.308681      1.643050     -0.178471
O       3.82552      9.75186      2.62438         1.339033     -0.896515     -0.330039
O       3.97246      9.82185     15.08185        -1.849402     -0.701556     -0.160695
O      15.58556      9.84766      2.54319         0.188182     -0.647335     -0.390382
O      15.55964      9.66702     15.02550         0.826071      0.129282     -0.082605
O       3.99087      9.76368      6.91184        -2.751000     -0.110323     -0.883636
O      15.56738      9.72281      6.64609         0.141330      0.014875      0.464842
O       3.91671      9.80571     10.77395        -0.438530      0.020071      0.643650
O      15.44406      9.72994     11.11546         1.934479     -0.034585     -1.265792
O       7.70290      2.01760      2.53218         3.687350     -0.421183      0.475289
O       7.83416      2.05964     15.01387        -0.197833     -0.955284     -0.325727
O       7.81846     13.74218      2.61393        -0.688576     -0.712993     -0.490638
O       7.71352     13.58473     14.97386        -0.072090      0.248620      0.898834
O       7.75903      1.91166      6.94355        -0.186298      0.789801     -1.343054
O       7.70430     13.33648      6.65795         0.614361      2.095367      0.227563
O       7.88082      1.76077     11.11123        -0.873352      1.526390     -2.159174
O       7.67165     13.61598     10.98503         0.645392      0.114903     -0.536095
O       7.82517      5.66529      2.45170        -1.107182      1.378139     -0.070122
O       7.89420      6.00245     14.84082        -2.044536     -0.421133      1.138426
O       7.90126      5.65745      6.70922        -0.769410      1.083928     -0.317318
O       7.82554      5.73524     10.87202        -0.283387      0.852341     -0.302211
O       7.66870      9.58339      2.63202         1.097813      0.633395     -0.757188
O       7.70614      9.63666     14.92325         2.113623      0.517229      0.149538
O       7.80195      9.78588      6.65590        -0.367513     -0.244612      0.271964
O       7.76694      9.68592     10.72447         0.282124     -0.280517      0.913123
O      11.59635      2.23236      2.30350        -0.202892     -1.877914      0.941627
O      11.74990      2.01157     14.96519        -1.359963     -0.275071      0.193168
O      11.61082     13.62722      2.58028         0.467778      0.857162     -0.509517
O      11.73929     13.67269     14.90381        -0.670803     -0.056853      0.365763
O      11.55506      1.91017      6.52977         2.006491     -0.651537      1.018101
O      11.66661     13.57945      6.70472         0.123862      2.275107      0.416001
O      11.68588      1.76766     10.93560        -0.256348      0.973014     -0.709575
O      11.51335     13.58428     10.91273         2.139520      0.303771     -0.463981
O      11.68166      5.64160      2.73754         0.034314      1.519089     -1.627751
O      11.85513      5.98011     15.18631        -1.795811     -1.484888     -1.110264
O      11.75040      5.95549      6.82157        -0.000830     -0.951287     -0.853445
O      11.77949      5.90142     10.97988        -1.183499     -0.608764     -0.399152
O      11.60152      9.80127      2.37287         1.008491     -0.071576      1.333391
O      11.71457      9.70188     14.97261        -1.413276      0.526782     -0.263893
O      11.56255      9.59956      6.77947         1.740779      0.247963     -0.247092
O      11.61423      9.82665     10.73493         1.751526     -1.328796      1.174434
O       1.90032      3.87010      2.38924         0.069263      0.340408      0.681045
O       1.81907      3.87352     15.25160         1.291022     -1.329544     -1.520200
O       2.05188     15.54349      2.64653        -0.699093     -0.240807      0.776326
O       1.79872     15.56327     15.06219         0.370286      0.742329     -0.919556
O      13.51009      3.76362      2.66790         1.699763      2.057153     -0.716132
O      13.73437      3.81559     15.22058        -1.139298      1.284646     -1.551101
O      13.74746     15.47096      2.31707        -0.734702      1.761626      1.025919
O      13.58964     15.49028     15.09806         0.569941      1.524064     -0.351047
O       1.93099      3.87367      6.64400         0.271269      0.231422      0.734766
O       1.86479     15.58671      6.67882         0.698584     -0.156196      0.346388
O      13.71824      3.74099      6.56444        -0.960465      2.095598      0.766352
O      13.60717     15.58788      6.59614        -0.189702     -0.432350      0.387204
O       1.89543      3.75103     10.77979         0.903550      1.302219      0.317408
O       1.93946     15.59317     10.84142         0.368112     -0.405359     -0.785992
O      13.53969      3.78732     10.79337         0.036692      1.881066      0.433592
O      13.53521     15.59376     10.92396         0.513944     -1.007287     -1.047182
O       1.84975      7.78570      2.76501         0.705777      0.241895     -1.627020
O       1.92436      7.76605     14.97637         0.322680      0.452426      0.371736
O      13.52554      7.68406      2.58565         0.153615      0.678778      0.183849
O      13.54709      7.83779     15.05315         1.391591     -0.344290      0.001318
O       2.01533      7.79077      6.59322        -0.689110      1.044700      1.177916
O      13.56178      7.74820      6.77088         0.867567      0.547114     -0.422614
O       2.11965      7.95067     10.79119        -1.403354     -2.103200      0.440423
O      13.65028      7.79655     11.12732         0.261488     -0.629811     -2.093063
O       2.18847     11.60665      2.59624        -1.503856      1.608980     -0.403757
O       1.76514     11.71613     15.00631         1.961305     -1.148947     -0.004944
O      13.62391     11.65060      2.46222         0.033886      0.854562      0.439141
O      13.58949     11.64597     15.21738         0.351546     -0.140561     -1.595625
O       1.83956     11.79800      6.64094         1.201751     -2.788081      0.989160
O      13.32423     11.67851      6.75724         2.145069     -0.671206     -0.637514
O       2.01346     11.65395     10.87918        -0.990170      0.674208      0.167948
O      13.51294     11.65848     10.84673         0.571940      0.259273      0.090152
O       5.69764      3.77013      2.48040         0.461226      0.824937      0.124605
O       5.96862      3.82344     15.07977        -0.907284      1.315732     -0.388056
O       5.89285     15.49262      2.66659        -0.220113      1.461039     -0.145749
O       5.80156     15.51589     15.08571         0.202754      0.809535      0.019577
O       5.94771      3.84501      6.72643        -1.394472      1.366520     -0.295371
O       5.86402      0.09914      6.57390        -0.032110     -2.597927      0.722855
O       5.99072      3.84094     10.96499        -1.555611      0.333803     -1.087336
O       5.70170      0.03627     10.88466         0.027681     -0.174914     -0.602339
O       5.80155      7.64783      2.63562         0.232654      1.022180     -0.574681
O       5.84926      7.76493     15.13956        -0.831639     -0.114672     -0.515917
O       5.89273      7.86676      6.83493        -0.170145     -1.360725     -1.340077
O       5.76384      7.74728     10.81949         0.097439     -0.755312      0.891070
O       5.81566     11.62778      2.51592         0.117569      1.000926     -0.340491
O       5.74249     11.66240     15.12272         0.317403      0.638705     -0.489475
O       5.83379     11.71400      6.70772        -0.979576     -0.624359      0.431754
O       5.82146     11.68524     10.96322         0.190483      0.081556     -0.361169
O       9.63503      4.01505      2.50531         0.398014     -2.249675     -0.497360
O       9.65484      3.98940     15.28771         1.316430     -1.256174     -1.293091
O       9.61186      0.07170      2.61411         0.859125     -1.567248     -0.199823
O       9.59869      0.00548     15.03442         0.702513      0.390086     -0.235427
O      10.00982      4.03864      6.71394        -0.948519     -2.016351     -0.137716
O       9.50680      0.06392      6.68263         0.858091     -0.708750      0.057883
O       9.72125      3.81894     10.91051         0.794678      0.107361     -0.216638
O       9.71828     15.54207     11.04399         0.080838     -0.561467     -1.541702
O       9.88651      7.80046      2.55005        -0.876743     -0.698680      0.047500
O       9.70557      7.82781     15.08105         0.421729      0.880457     -0.586764
O       9.82991      7.75850      6.78375        -0.937856     -0.945964     -0.515922
O       9.74101      7.70550     10.86199         0.051509      0.619586      0.029062
O       9.80119     11.79408      2.57671        -1.245966     -2.311451     -0.245504
O       9.62894     11.78857     14.87348         0.245110     -2.263056      0.646113
O       9.88617     11.82380      6.57356        -0.768404     -1.544916      0.913205
O       9.75352     11.57853     10.87266        -0.679183      1.216930      0.356997
