  # total energy = -7882.76823470 
CRSYTAL
PRIMVEC
    15.464    0.0000000000000000    0.0000000000000000
     0.0000000000000000   15.464    0.0000000000000000
     0.0000000000000000    0.0000000000000000   17.350608
PRESSURE
0.275075 0.32156 -2.25621 -0.307491 0.124717 -0.032837
PRIMCOORD
320 1
Pb       3.78241      4.03975      4.23709         0.155632     -1.034061      0.873774
Pb       3.71284      3.89869      0.11172         0.828875      0.111047     -0.044194
Pb       3.79634     15.35138      4.29079         0.433251      0.164656      0.527218
Pb       3.71094     15.36924     17.35020         0.201572      0.225173      0.087294
Pb      15.42215      3.87007      4.27344         0.126581     -0.104460      0.002201
Pb       0.04617      3.96359     17.27741        -0.375216     -0.061519      0.391467
Pb       0.05054     15.46226      4.37539        -0.490696     -0.191153     -0.292862
Pb       0.05660     15.45195     17.28833         0.121548      0.135455     -0.016445
Pb       3.90272      3.86012      8.63210        -0.042041     -0.617131      0.545812
Pb       3.79565      0.02966      8.61150        -0.198231      0.032042      0.262231
Pb       0.08979      3.89682      8.74032        -0.615315     -0.473898     -0.159718
Pb       0.02301     15.42556      8.58667        -0.778877     -0.034003      0.859161
Pb       3.94181      3.82297     13.02774         0.172553      0.054485     -0.368651
Pb       3.83114     15.44587     12.97205         0.144251     -0.215538      0.202678
Pb       0.04371      3.77553     12.96261        -0.620869     -0.266176      0.258913
Pb       0.02783     15.41384     13.01021        -0.126291      0.248465      0.277785
Pb       3.82122      7.72510      4.36621         0.175047      0.140265     -0.144042
Pb       3.90402      7.71965     17.22303        -0.119901     -0.255775      0.560542
Pb       0.06507      7.73720      4.34842        -0.063317     -0.128874     -0.307671
Pb      15.45196      7.67741     17.21997        -0.159758     -0.245037      0.594712
Pb       3.84239      7.72302      8.60495         0.095911      0.260512      0.178280
Pb      15.36415      7.74635      8.57482         0.033514     -0.214014      0.357742
Pb       3.81847      7.70415     12.96085         0.503648     -0.082118      0.051831
Pb      15.42709      7.64404     13.04079         0.579520      0.498413      0.526637
Pb       3.69458     11.53250      4.23342         0.639665      0.220108      0.656255
Pb       3.76083     11.58383     17.27633         0.038075     -0.008720      0.151016
Pb      15.46221     11.51525      4.24248         0.164551      0.269852      0.395201
Pb       0.00161     11.54548     17.26775        -0.000850      0.436133      0.250095
Pb       3.77056     11.55019      8.46879         0.420408      0.579424      1.252367
Pb       0.00654     11.55915      8.72693        -0.054798      0.527028     -0.309889
Pb       3.85604     11.60762     12.90439        -0.104526      0.171568      0.448589
Pb      15.43283     11.59593     13.13094         0.082319     -0.105566     -0.142080
Pb       7.70939      3.93038      4.18236         0.495749     -0.328645      0.801501
Pb       7.69456      3.90475     17.31101         0.071678      0.016019      0.703993
Pb       7.61224      0.00544      4.30940         0.226801     -0.188955     -0.027511
Pb       7.75441     15.44863     17.28666        -0.296836      0.187835      0.423368
Pb       7.70088      3.81255      8.68997         0.187737     -0.207292      0.215742
Pb       7.68995     15.40140      8.57724         0.330922      0.074230      0.530223
Pb       7.70317      3.82159     12.94964         0.006603      0.142618      0.536354
Pb       7.62925     15.32934     12.88738         0.491829      0.119243      1.126456
Pb       7.64207      7.65764      4.28402         0.070261      0.479087      0.300167
Pb       7.61770      7.62008     17.23408         0.530351      0.103364      0.464896
Pb       7.75180      7.73407      8.60525         0.003737     -0.009042      0.697264
Pb       7.67552      7.67901     12.90168         0.146532      0.060666      0.499178
Pb       7.66856     11.56335      4.19338         0.047647     -0.057374      0.636135
Pb       7.72967     11.59599     17.32452         0.277243     -0.219957      0.160367
Pb       7.64494     11.56572      8.63606         0.271717      0.259968      0.009186
Pb       7.74793     11.64656     13.05587         0.293496      0.060728     -0.093326
Pb      11.72908      3.88848      4.11980        -0.686953     -0.612877      1.211069
Pb      11.64399      3.84682     17.26561        -0.562786      0.132040      0.676869
Pb      11.55268      0.06003      4.20873         0.133146     -0.697643      0.436484
Pb      11.59961      0.08675     17.24837        -0.198049     -0.302336      0.776103
Pb      11.51936      3.78006      8.50545         0.144636      0.033144      0.623233
Pb      11.61857      0.01251      8.67828         0.265317     -0.183488      0.131020
Pb      11.61084      3.78024     12.93746         0.300893      0.212875      0.506739
Pb      11.68573     15.41017     12.94033        -0.481435     -0.476710      0.376876
Pb      11.55944      7.78703      4.35041        -0.171707     -0.255864     -0.155751
Pb      11.56074      7.77741     17.30584        -0.056392      0.003117      0.244505
Pb      11.67896      7.77380      8.51804        -0.229083     -0.666190      0.985981
Pb      11.62825      7.82023     12.91214        -0.703445     -0.417524      0.950500
Pb      11.57283     11.53259      4.20803        -0.706651      0.831736      0.459391
Pb      11.59280     11.48284     17.30947        -0.248118      0.193765      0.801651
Pb      11.67336     11.55983      8.65726        -0.339831      0.242507      0.401198
Pb      11.53213     11.53831     13.15454        -0.200729      0.606853     -0.265179
Ti       1.97342      1.84880      2.34216         0.055246      0.814558     -0.929023
Ti       1.93200      2.04676     15.33346        -0.611010     -2.049347     -0.764235
Ti       1.81198     13.53278      2.32949         1.167083     -0.490736      0.206298
Ti       1.89683     13.51464     15.28286         0.081952      0.389573      0.011103
Ti      13.69891      1.86077      2.28590        -1.177530      0.114684      1.465121
Ti      13.54231      1.93578     15.43516         0.428634     -0.164953     -1.736395
Ti      13.48944     13.55685      2.29450        -0.958653      0.014129     -0.867997
Ti      13.53936     13.52423     15.46926        -0.055781      0.008593     -1.709090
Ti       1.90445      1.93318      6.59341         0.091869      0.343533      0.082004
Ti       1.83450     13.54239      6.62764         0.044523     -1.067425     -0.665751
Ti      13.49909      1.82869      6.59939         0.430606      0.148392     -0.897827
Ti      13.47876     13.46427      6.61064         0.147961     -0.010781      0.997192
Ti       1.94562      1.90444     11.06415        -0.339289     -0.881047     -0.897214
Ti       1.80497     13.49389     11.01863         0.856078     -0.643536     -1.027645
Ti      13.48081      1.90842     11.07182         1.418911     -0.788683     -2.095292
Ti      13.51579     13.46200     11.14882        -0.378007      1.242898     -2.069029
Ti       1.94426      5.76559      2.33258        -0.584164      0.311396     -0.012808
Ti       1.90953      5.76336     15.24248         0.470431      1.353390      0.517358
Ti      13.58332      5.89722      2.35507        -0.078204     -0.537218     -0.948806
Ti      13.45224      5.76606     15.32707         1.281917     -0.097100     -0.727663
Ti       1.91317      5.71415      6.73989        -0.082723      0.522289     -0.058140
Ti      13.48529      5.65990      6.65566         0.018715      0.370185      0.161622
Ti       1.93084      5.75667     11.05658         0.250754      0.046537      0.557315
Ti      13.56764      5.85675     11.14429        -0.359109     -1.241737     -1.630890
Ti       1.87896      9.61749      2.23121         0.447989     -0.710560      0.182338
Ti       1.92056      9.60741     15.39044         0.410630      0.229739     -1.156325
Ti      13.49136      9.70343      2.36571        -0.521216     -1.257609     -1.565453
Ti      13.57030      9.65838     15.41818        -0.925883     -0.312854     -0.825152
Ti       1.88298      9.63755      6.77426         0.077156      0.215592     -1.704882
Ti      13.47085      9.65559      6.54965         1.368928      0.104701     -0.652588
Ti       1.90159      9.66482     11.06864        -0.556310      0.148320     -1.442124
Ti      13.52444      9.70846     11.12249         0.132019      0.178383     -1.051877
Ti       5.74760      1.98028      2.43194         0.046656     -0.410995     -0.377177
Ti       5.65406      1.96717     15.50190         0.345311     -0.497015     -0.443964
Ti       5.73482     13.53699      2.33485        -0.782062     -0.363837      0.768843
Ti       5.74227     13.50192     15.45441         0.178523      0.709248     -2.250549
Ti       5.80395      1.94778      6.68754        -0.509481      0.064340     -0.915857
Ti       5.73527     13.59536      6.71540         0.341414     -0.948976     -1.840325
Ti       5.75826      1.86100     11.02757        -0.145998      0.517458     -0.791980
Ti       5.73099     13.47536     11.04209         0.209634      0.339257     -1.342085
Ti       5.86780      5.76981      2.32806        -1.497705      1.086211     -1.956001
Ti       5.77267      5.75189     15.34963        -0.042738      0.401075     -0.945837
Ti       5.81789      5.75372      6.76164        -0.118931      0.539415     -0.928718
Ti       5.83252      5.77316     10.96702         0.258207     -0.342839     -0.196181
Ti       5.68009      9.58060      2.35352         0.730037      0.076024      0.188840
Ti       5.87971      9.66545     15.32967        -1.116758     -0.223372     -1.592094
Ti       5.84523      9.67738      6.73679        -0.271454     -0.138347     -1.615648
Ti       5.73878      9.74759     11.02765         0.809393     -1.291612     -1.036916
Ti       9.70532      1.90798      2.42780        -0.465270      0.203340     -1.295221
Ti       9.52886      1.97874     15.43748        -0.071210     -0.915210     -2.210773
Ti       9.60445     13.52364      2.27719         1.067890     -0.470184     -0.594560
Ti       9.71470     13.51283     15.52473        -0.389868      0.264554     -2.524642
Ti       9.67113      1.89275      6.60953        -0.527315     -0.378372     -0.659263
Ti       9.67983     13.45293      6.75190        -0.453972      0.282057     -1.285230
Ti       9.55661      1.88007     11.11026         0.634517     -0.309935     -0.988941
Ti       9.60778     13.59346     10.92192         0.654747     -1.069978     -0.049130
Ti       9.74009      5.80580      2.33540         0.073242     -0.440479     -0.992250
Ti       9.68748      5.77513     15.28251        -0.801603      0.213707      0.302268
Ti       9.62025      5.76812      6.67940         0.344870      0.102695     -1.284945
Ti       9.74048      5.78070     11.04391        -0.659971      0.006704      1.646088
Ti       9.62531      9.62787      2.29088        -0.185442      0.101993     -1.646676
Ti       9.63004      9.63561     15.33655         0.085864      0.030417     -0.772347
Ti       9.75790      9.64645      6.74080        -1.926497      0.610396     -0.529356
Ti       9.62389      9.71835     11.07343         0.083837      0.121385     -1.586905
O       1.96908      1.80035      0.54842         0.005420      0.508694      0.278057
O       1.86338      1.99843     13.51836         0.554338     -0.214301      1.000290
O       2.03228     13.47658      0.57772        -0.656976      0.001071      0.003421
O       1.85211     13.46468     13.52173         0.432806     -0.141125     -0.104940
O      13.60389      1.86695      0.57236        -0.042872      0.191212     -1.315007
O      13.61925      1.97339     13.60678        -0.274856     -0.205038      1.237451
O      13.51699     13.54214      0.51397         0.176077      0.074244      0.194120
O      13.54126     13.45105     13.62664        -0.119734      0.111133      0.937262
O       1.90387      2.03162      4.83180        -0.341053     -0.464819      0.529276
O       1.81887     13.36859      4.80229        -0.131029      0.441552      0.851219
O      13.47587      1.84836      4.77049         0.415080     -0.158218      1.066444
O      13.45732     13.50641      4.90052         0.284990     -0.151280     -1.259491
O       1.97985      1.67097      9.28583        -0.216220      0.694020      0.314907
O       1.65199     13.43544      9.21033         0.482429      0.287405      0.567987
O      13.56354      1.67161      9.21910        -0.468935      0.702010      1.484544
O      13.65440     13.58159      9.32361        -0.309396     -0.533560      0.662738
O       1.85318      5.84344      0.60424         0.235406     -0.426711     -1.218077
O       1.88614      5.80742     13.50128         0.341779     -0.036892     -0.564091
O      13.62071      5.89554      0.54726        -0.121243     -0.244619      0.467921
O      13.64442      5.52688     13.57104        -0.610495      0.784051      0.440130
O       2.01808      5.74227      4.99105        -0.748197      0.047922     -0.596470
O      13.53165      5.69121      4.90252         0.126543      0.132473     -0.113996
O       1.89201      5.75748      9.31391         0.038815      0.000747     -0.174615
O      13.63129      5.89423      9.34266        -0.316642     -0.074086      0.770143
O       1.94055      9.69065      0.47362        -0.271227     -0.127708      0.056893
O       1.81166      9.64785     13.60657         0.450054     -0.034024      0.088552
O      13.43741      9.42579      0.50823         0.210992      0.834400      1.111253
O      13.49364      9.70758     13.63908         0.296425      0.196520      0.294942
O       1.96761      9.72318      4.94407        -0.609586     -0.431252      0.781907
O      13.39198      9.64739      4.73659         0.406631      0.063848      0.651130
O       1.85960      9.60530      9.23249         0.115504      0.267025      0.476254
O      13.35481      9.58554      9.30869         0.591805      0.138504      1.150492
O       5.74075      2.01935      0.68489        -0.246663     -0.130880     -0.206161
O       5.68305      2.00571     13.75010        -0.072578     -0.055760     -0.047587
O       5.47741     13.62812      0.62553         0.772705     -0.669589     -0.805444
O       5.80145     13.50751     13.58526        -0.236472     -0.147768      1.515641
O       5.67888      2.05985      4.92571         0.665921     -0.383983     -0.069964
O       5.65857     13.55805      4.88189         0.531332      0.279424      1.112855
O       5.82865      2.04350      9.28291        -0.319507     -0.814892     -0.373031
O       5.74373     13.38820      9.27441         0.184582      0.382712     -0.580374
O       5.67699      5.82347      0.50044         0.513208      0.104515      0.923230
O       5.78224      5.76076     13.56409        -0.026195     -0.273374      0.463251
O       5.82553      5.82731      4.94095         0.009249     -0.296679      0.946657
O       5.84495      5.69034      9.13745        -0.344625      0.355309      0.985024
O       5.75516      9.40034      0.61776         0.070604      0.568452     -0.665065
O       5.92061      9.65607     13.51502        -0.457947      0.064211      1.096458
O       5.86799      9.52744      4.92408        -0.117123      0.148121      0.668112
O       5.73521      9.66044      9.20960         0.196976      0.049021      0.784517
O       9.63029      1.95425      0.65259        -0.033275     -0.251103     -0.461050
O       9.41397      1.78005     13.61769         0.655232      0.813558      1.390429
O       9.67043     13.57418      0.49443        -0.165192     -0.137198     -0.115252
O       9.71430     13.50761     13.65805        -0.236870     -0.117677      1.639610
O       9.69173      1.93802      4.83495        -0.257142     -0.276028      0.259121
O       9.67917     13.39019      4.97681        -0.272420      0.166515     -0.058829
O       9.62298      1.88543      9.33969         0.063654      0.315859      0.053554
O       9.68357     13.55636      9.16092        -0.128684     -0.113987     -0.491002
O       9.79062      5.78281      0.56433        -0.108048      0.131119      0.431387
O       9.60961      5.70553     13.55334         0.298614      0.226565      0.147879
O       9.54426      5.80683      4.90376         0.133710     -0.017827     -0.101222
O       9.68124      5.67058      9.35713         0.062600     -0.116968     -1.699364
O       9.72389      9.58802      0.45380        -0.299401     -0.013515      1.195964
O       9.47040      9.75374     13.50476         0.966726     -0.129234      1.242770
O       9.64600      9.79945      4.98771         0.197040     -0.528662     -0.219340
O       9.77723      9.72132      9.21239        -0.151328     -0.177690      1.462725
O       3.77989      1.93999      2.84809         1.197262      0.033062     -0.421421
O       3.73171      1.80777     15.83601         1.138341      0.952133     -0.209373
O       3.75567     13.58760      2.80415         0.193852     -0.901267     -0.305371
O       3.76364     13.48086     15.75315         0.908427     -0.101903     -0.159271
O       0.10385      1.77362      2.62751        -1.602577      0.241650      0.600685
O       0.00448      1.98035     15.78730         0.558595      0.018566      0.023064
O      15.38529     13.51263      2.72829         0.564880     -0.225403      0.020687
O       0.01672     13.50735     15.73920        -0.365325     -0.270139      0.294997
O       3.81033      1.91750      7.06754        -0.044275     -0.057992      0.111649
O       3.79659     13.49161      7.03665         0.162768      0.363110      0.039193
O      15.36502      1.98615      6.96076         0.925354     -0.379768      0.005728
O      15.44170     13.48346      7.00560        -0.063770      0.050011     -0.189108
O       3.84899      1.91615     11.41023         0.136124     -0.431120      0.501210
O       3.90425     13.40132     11.27190        -1.376882      0.085807      0.928522
O       0.01897      1.82031     11.38569         0.371069      0.403769      0.169482
O      15.45771     13.43392     11.48193         0.157043     -0.173782      0.301043
O       3.79071      5.74937      2.70460         0.439602      0.263138     -0.000194
O       3.87986      5.89442     15.68790        -0.885291     -0.023131     -0.163584
O       0.00267      5.79598      2.74814        -0.380816      0.120392      0.490517
O       0.03175      5.76169     15.65748        -0.011608     -0.250812      0.312465
O       3.80567      5.58833      7.04996         1.027077      0.935524      0.258315
O      15.41542      5.69113      7.20893         0.118476      0.199940     -0.612596
O       3.92530      5.80692     11.49853        -0.970966     -0.106310     -0.622130
O      15.44086      5.71850     11.49882         1.198374      0.283512     -0.317240
O       3.80224      9.59113      2.72968        -0.466010     -0.256682     -0.103313
O       3.81973      9.53516     15.69137         0.809776      0.642686     -0.111584
O      15.38637      9.48202      2.71799         0.425917      0.744724     -0.171358
O      15.45350      9.65774     15.75992        -0.543788      0.348724      0.177261
O       3.83877      9.74926      7.00310         0.112927     -0.857610      0.360786
O      15.42817      9.61780      6.97007         0.011782     -0.188153      0.123179
O       3.88937      9.59989     11.30729        -0.350565      0.028177      0.622593
O      15.44359      9.73795     11.48430        -0.460364     -0.090316     -0.313816
O       7.68849      1.94236      2.83386        -0.527059     -0.284089     -0.084655
O       7.62149      2.00896     15.92574         0.282326     -0.100061     -0.406239
O       7.68784     13.44261      2.55953        -0.698032      0.111025      0.294113
O       7.71873     13.43138     15.87513        -0.618817      0.229975     -0.105033
O       7.68946      1.80253      7.12214         0.870995      0.697500     -0.575117
O       7.66269     13.55306      7.06941         0.101368      0.057880      0.114523
O       7.67094      1.82959     11.41352         0.404483      0.253210      0.101081
O       7.66457     13.61770     11.29059         0.717895     -0.546712      0.311410
O       7.69710      5.80806      2.59377         0.875758      0.033279      0.246159
O       7.73840      5.68446     15.72642         0.025213      0.382227      0.034115
O       7.75286      5.85332      7.15202        -0.753450     -0.209196     -0.233320
O       7.70444      5.73343     11.47690         0.224098     -0.346097     -0.602665
O       7.73735      9.66291      2.71193        -0.335151     -0.406974     -0.090028
O       7.71100      9.73995     15.67771         0.229003      0.046332      0.606952
O       7.70619      9.53501      7.16896         0.516394      0.281833     -0.270016
O       7.78024      9.67940     11.43561        -0.397806     -0.049978     -0.650220
O      11.58470      1.81750      2.61263         0.312640      0.485467      0.220764
O      11.59298      1.95035     15.72896        -0.103304     -0.096427      0.030524
O      11.57733     13.50129      2.65804        -0.151489      0.064776      0.217686
O      11.58733     13.59581     15.76129         0.155283      0.015168      0.187129
O      11.61571      1.83175      6.98763        -0.899698      0.546385      0.353044
O      11.57744     13.28567      7.02076         0.494533      0.647828      0.332343
O      11.63258      1.77689     11.34121        -0.572895      0.286106      0.560155
O      11.60836     13.62904     11.29344        -0.120058     -0.054238      0.490546
O      11.67532      5.72192      2.74971        -0.893018      0.278183     -0.310841
O      11.61186      5.77140     15.68912        -0.306676     -0.138710     -0.093944
O      11.52499      5.65750      7.09983         0.920436      0.641858     -0.179942
O      11.64181      5.84967     11.49296         0.223060     -0.512992     -0.036751
O      11.53206      9.62166      2.69059         0.359557     -0.154054      0.214876
O      11.58705      9.71187     15.68995        -0.159552     -0.603684     -0.142712
O      11.64346      9.63483      6.99862        -0.190973      0.353905      0.180230
O      11.59580      9.70708     11.57356        -0.161612     -0.235875     -0.366285
O       1.83977      3.81164      2.63380         0.122973      0.327340      0.176595
O       2.07597      3.90947     15.67076        -0.470378     -0.185533      0.301324
O       1.92691     15.40217      2.71555        -0.348670     -0.074093      0.184936
O       1.93878     15.45205     15.69392        -0.610499     -0.184590     -0.116123
O      13.54309      3.79727      2.75878         0.759556     -0.032827     -0.782981
O      13.58725      3.84298     15.82719        -0.333653      0.182010      0.118527
O      13.47450     15.41770      2.66676         0.527559      0.507173      0.227631
O      13.62183     15.41726     15.79535        -0.406095      1.060028     -0.147431
O       1.92594      3.82488      7.13969        -0.569917     -0.512278      0.073799
O       1.86390     15.43995      7.00956         0.239296      0.319942     -0.540816
O      13.42215      3.82001      6.97439         0.264722     -0.471331      0.336767
O      13.47078     15.34268      7.00723         0.054926      0.867169     -0.146598
O       2.03906      3.77635     11.34363        -0.639003      1.389528     -0.083868
O       2.02588     15.29686     11.40100        -0.241973      1.321979      0.296191
O      13.57431      3.80907     11.41293        -0.437596     -0.150421     -0.304423
O      13.68760     15.37270     11.59153        -0.816692      0.799227     -0.185973
O       1.90062      7.68750      2.68253        -0.057840      0.576395      0.526543
O       1.87007      7.72013     15.74405        -0.040682     -0.566587     -0.358390
O      13.37585      7.68989      2.82382         0.679556      0.282265     -0.120707
O      13.57581      7.69024     15.58649        -0.164980      0.050495      0.121674
O       1.93144      7.67688      7.06579         0.109189      0.039458      0.104326
O      13.54307      7.72044      6.97220        -0.323164     -0.327104      0.012857
O       1.83365      7.78870     11.38475         0.402708     -1.391888      0.341750
O      13.58222      7.73652     11.65162        -0.256328      0.313910     -0.865697
O       1.92250     11.48460      2.65815        -0.717921      0.610791     -0.046921
O       1.84048     11.59837     15.71354         0.345221     -0.467172      0.289087
O      13.43528     11.56718      2.54998         0.631180     -0.403862      0.308205
O      13.41756     11.63895     15.81254         0.925385     -0.952778     -0.024440
O       1.89743     11.61398      7.11697        -0.559507     -0.484416     -0.265330
O      13.62890     11.50634      6.98357        -0.455493     -0.027827      0.217106
O       2.00646     11.56506     11.38509        -0.309053     -0.352141      0.257926
O      13.48720     11.61370     11.47836        -0.041721     -1.227376      0.051692
O       5.71617      3.96437      2.68268         0.145634     -1.599386      0.421499
O       5.65065      3.93188     15.85357        -0.066365     -1.336545     -0.033246
O       5.68000     15.44542      2.77830         0.560167      0.322629      0.047566
O       5.75417     15.42749     15.72383         0.120771      0.134661      0.430079
O       5.83870      3.79110      7.19111         0.077330      1.089137     -0.477593
O       5.79346      0.05633      7.07355        -0.591482     -1.046535      0.042622
O       5.80974      3.74055     11.37936        -0.246013      1.298140      0.470408
O       5.69153     15.41853     11.46045        -0.034093      0.254638     -0.167577
O       5.67510      7.62681      2.75898         0.378999      0.752130      0.395515
O       5.93323      7.71939     15.63248        -0.422153      0.333226      0.229198
O       5.73554      7.69942      7.05717        -0.302285     -0.603916      0.462650
O       5.85838      7.62749     11.41520        -0.329816      0.889763     -0.428110
O       5.64733     11.48499      2.73607         0.405579      0.875644     -0.423877
O       5.73153     11.59823     15.73289        -0.007647     -0.636295      0.472463
O       5.89259     11.59320      6.95180        -0.367304     -0.055244      0.378007
O       5.85262     11.55835     11.46004        -0.104182     -0.228544     -0.097595
O       9.61360      3.85225      2.65500         0.204738      0.278809      0.446731
O       9.63975      3.88040     15.76465         0.359977     -0.356479     -0.024460
O       9.61065     15.36891      2.67427        -0.328281      0.728040      0.525513
O       9.53308      0.02683     15.73474         0.320248      0.044908      0.615924
O       9.55388      3.87887      6.97566         0.286252     -1.406136      0.543697
O       9.68210     15.46011      6.97915         0.005504     -0.037880      0.299192
O       9.73408      3.82389     11.60324        -0.455387     -0.623620     -0.967608
O       9.62028     15.39637     11.33295         0.111686      1.394516      0.639085
O       9.69049      7.68297      2.69560        -0.015199      0.297139      0.243645
O       9.61486      7.74495     15.70902         0.101950     -0.364044     -0.357892
O       9.77743      7.69896      7.00740        -0.392538      0.310492      0.376749
O       9.67683      7.66279     11.32920         0.046454      1.214102      0.313640
O       9.70366     11.55581      2.55808        -0.378294     -0.021955      0.415177
O       9.69056     11.55158     15.82946        -0.232382      0.307278     -0.125478
O       9.58162     11.55912      7.08157         0.041327     -0.548076      0.547362
O       9.67827     11.72060     11.42002        -0.066222     -1.364333      0.019388
