  # total energy = -7880.08264353 
CRSYTAL
PRIMVEC
    15.464    0.0000000000000000    0.0000000000000000
     0.0000000000000000   15.464    0.0000000000000000
     0.0000000000000000    0.0000000000000000   17.350608
PRESSURE
-1.0024 -1.15708 -3.89729 -0.251485 -0.087653 0.052087
PRIMCOORD
320 1
Pb       3.79444      3.73107      4.25048         0.138360      0.245883     -0.237238
Pb       3.70099      3.77875      0.01206         0.552993      0.469891     -0.265385
Pb       3.97748     15.34802      4.31871        -0.380021      0.065834     -0.160825
Pb       3.73667      0.01837      0.06277         0.080120     -0.555183     -0.431082
Pb      15.22184      3.83137      4.24930         0.164687     -0.042700     -0.254742
Pb       0.02244      3.97168     17.28640        -0.246861     -0.651333      0.132945
Pb      15.39393      0.00216      4.32215        -0.579497     -0.446223     -0.600650
Pb      15.43539      0.04520     17.32758        -0.143026     -0.554807     -0.071946
Pb       3.89164      3.80708      8.68581         0.675089     -0.146402     -0.332855
Pb       3.85151      0.07751      8.55830         0.131422     -0.165820      0.155251
Pb       0.09944      4.02529      8.71991        -0.923992     -0.781623     -0.483313
Pb       0.07475      0.05567      8.69767        -0.013770     -0.076600     -0.407554
Pb       3.92031      3.96012     13.10158         0.029293     -0.036670     -0.453037
Pb       3.77534      0.14318     12.99010         0.360397     -0.210529     -0.615729
Pb      15.40545      3.84680     13.06335        -0.612845     -0.366583     -0.326483
Pb      15.43622     15.32972     13.06127        -0.008613      0.165885     -0.512288
Pb       4.00677      7.68475      4.35304        -0.444825      0.083646      0.063112
Pb       4.05791      7.85139     17.16580        -0.900075     -0.345964      0.795834
Pb       0.14169      7.75140      4.41484        -0.272482      0.202331     -0.581634
Pb       0.04753      7.72433     17.29794         0.036906      0.070426      0.023433
Pb       3.69675      7.59407      8.65869         0.136520      0.428365     -0.451478
Pb      15.19240      7.79767      8.62187         1.078782     -0.061897     -0.129167
Pb       3.81950      7.76066     12.97837         0.329203     -0.375021     -0.645814
Pb      15.44112      7.49749     13.00918        -0.245898      0.570306      0.237853
Pb       3.91855     11.47585      4.33927        -0.152943      0.056422     -0.078222
Pb       3.86687     11.58145     17.28146        -0.545804     -0.122532     -0.007495
Pb       0.03244     11.63582      4.29287         0.055587     -0.103187     -0.462651
Pb      15.41502     11.58309      0.02825         0.799535      0.416298     -0.490610
Pb       3.89697     11.50338      8.75395        -0.532968      0.035547     -0.439113
Pb       0.10033     11.69943      8.68335         0.451213     -0.182322     -0.235462
Pb       3.86017     11.62799     12.92476        -0.615764      0.068693      0.125913
Pb       0.01097     11.35568     13.23077         0.373472      0.491075     -0.525863
Pb       7.82688      3.85356      4.24908        -0.396628     -0.342183     -0.017002
Pb       7.68344      3.76769     17.30281        -0.009304     -0.155511      0.131346
Pb       7.64392      0.00475      4.30726         0.287969      0.201024     -0.191919
Pb       7.74911      0.04603     17.34322         0.094821     -0.027416     -0.273665
Pb       7.78539      3.81798      8.61026        -1.005052     -0.137620     -0.313354
Pb       7.80402     15.28363      8.58956        -0.173699      0.447430      0.023159
Pb       7.77028      3.96313     13.06767        -0.473018      0.038091     -0.751762
Pb       7.58500     15.42965     12.93350        -0.089943     -0.083772     -0.122663
Pb       7.78505      7.65595      4.31496        -0.361615      0.188243     -0.082981
Pb       7.70818      7.78371     17.24540        -0.244781     -0.075999      0.768697
Pb       7.73190      7.71493      8.66173        -0.579493     -0.084115     -0.475105
Pb       7.85161      7.74371     12.94336        -0.706051      0.305996     -0.228354
Pb       7.73439     11.60249      4.35225        -0.200167     -0.270234     -0.115574
Pb       7.73360     11.73853     17.33434        -0.029452     -0.665653      0.152443
Pb       7.86416     11.52592      8.66253        -0.298630      0.054019     -0.282620
Pb       7.72017     11.68174     12.96488        -0.256268     -0.615068     -0.030491
Pb      11.66351      3.84349      4.21244        -0.432325      0.092432      0.162832
Pb      11.52353      3.77437     17.22225         0.478477     -0.511397     -0.280691
Pb      11.49564      0.06192      4.34509         0.399649      0.084755     -0.295894
Pb      11.58682     15.40097     17.25574         0.126683      0.387416     -0.389475
Pb      11.35904      3.82888      8.53802         1.039316     -0.040455      0.551313
Pb      11.65694      0.03392      8.59306        -0.143413     -0.146390      0.680346
Pb      11.45950      3.88566     12.91634         1.108453     -0.207986     -0.535760
Pb      11.43620      0.02391     12.98261         1.024608     -0.331141     -0.378364
Pb      11.43072      7.74282      4.36550         0.436270     -0.262946     -0.236899
Pb      11.43136      7.66772      0.04387         0.562674      0.205333     -0.316335
Pb      11.53134      7.73724      8.54228         0.109892     -0.076514      0.224321
Pb      11.58780      7.61492     12.92322         0.299635      0.180143     -0.351903
Pb      11.53645     11.76534      4.27325         0.200810     -0.953742      0.745720
Pb      11.61041     11.57886      0.05046        -0.038870      0.149492     -0.727593
Pb      11.78554     11.70374      8.73768        -0.679478     -0.142054      0.017303
Pb      11.45547     11.53180     13.12579         0.403486      0.068154     -0.828320
Ti       1.87114      1.88709      2.40814        -1.033408      0.088964     -0.361414
Ti       1.96981      1.90242     15.36976        -1.193966     -0.375203     -0.573128
Ti       1.98619     13.52998      2.34098        -1.006476     -0.459404      0.307983
Ti       1.97180     13.50865     15.39037        -1.152475     -1.229097      0.921116
Ti      13.40105      1.86230      2.18468         0.473783     -0.508018     -0.307935
Ti      13.60183      1.84150     15.20806        -0.890598      0.561158     -0.024355
Ti      13.43629     13.39856      2.33384         2.238127      1.707082     -0.606519
Ti      13.46494     13.46753     15.29799         1.007757      1.010482      0.535935
Ti       1.89111      1.95339      6.54489         0.011956     -1.417470     -0.037185
Ti       2.01429     13.48550      6.58008        -1.206055      0.046031      2.456934
Ti      13.55417      1.96306      6.77037         0.438073      0.037428     -0.835477
Ti      13.54082     13.52367      6.73238         0.700208      0.870162     -1.518615
Ti       1.86973      1.98597     10.97352         0.683502     -0.676923     -0.679905
Ti       2.00306     13.59207     10.97870        -0.359356     -1.158044     -0.272633
Ti      13.53709      1.84501     10.95489        -0.659514      0.135226     -0.972668
Ti      13.62456     13.41240     11.05037        -1.092251      0.754593      0.211112
Ti       1.91036      5.76141      2.28004        -0.344623      0.386338      0.023128
Ti       1.91634      5.74971     15.31927         0.572184     -0.098648      0.320624
Ti      13.46388      5.80875      2.12972         0.296329     -0.520083      0.359009
Ti      13.46077      5.78316     15.38790         0.068674     -0.414528     -0.531852
Ti       1.83904      5.70761      6.54362         0.582462      1.279454     -0.622741
Ti      13.51217      5.76328      6.63046        -0.568530     -0.210796     -0.792107
Ti       1.76888      5.71979     11.01410         1.474337      0.825141      1.284376
Ti      13.47296      5.75611     10.84840        -0.939099     -1.240336      0.246389
Ti       1.97214      9.60167      2.34643        -1.199965      0.481415     -0.850384
Ti       1.87352      9.59622     15.27211         0.698064      2.082998     -0.281327
Ti      13.51644      9.61409      2.24870         0.934902      0.159595      0.214494
Ti      13.47291      9.63428     15.34959         0.076143     -0.203543      0.829909
Ti       1.80730      9.58136      6.64627         1.216239      0.621796      0.216979
Ti      13.49864      9.74793      6.66577         0.052838     -0.809889     -1.055245
Ti       1.89053      9.60971     10.98309        -0.114270      0.639850     -1.612455
Ti      13.61776      9.58959     10.96996        -0.929737      1.466151      0.281072
Ti       5.64855      1.82364      2.17910         1.663070      0.804806     -0.113072
Ti       5.82150      1.84656     15.28817         0.080103      0.158932     -0.079573
Ti       5.82822     13.41309      2.29952         0.397840     -0.039568     -1.615960
Ti       5.81272     13.52148     15.31820        -1.027739     -0.463657     -0.478247
Ti       5.77053      1.86313      6.54127         0.546926      0.048581      0.439511
Ti       5.73611     13.39733      6.69435         0.648546      0.230259     -0.160688
Ti       5.84625      1.89608     10.97607        -1.850692      0.529653     -0.492122
Ti       5.79160     13.49721     10.87873        -0.609620      0.787802     -1.004206
Ti       5.73795      5.74613      2.33926        -0.019130     -0.249181     -1.125510
Ti       5.87205      5.74950     15.36191        -2.485910     -0.424003     -1.510135
Ti       5.72777      5.68870      6.55273         0.662300      0.777739      0.811391
Ti       5.72456      5.75278     10.99746         0.026236      0.145638     -0.640138
Ti       5.79059      9.59287      2.30338         0.178224      0.157811     -0.529487
Ti       5.77652      9.72644     15.24768        -0.391949     -0.410005     -1.046962
Ti       5.70271      9.57934      6.64003        -0.246538     -0.548369     -1.263015
Ti       5.75314      9.69987     11.03373         0.455772     -1.520095     -0.709034
Ti       9.59200      1.89645      2.25150         0.261326     -0.598703     -1.474286
Ti       9.71016      1.90329     15.20758        -0.034542     -0.899185      0.677268
Ti       9.62548     13.50380      2.33501        -0.299115      0.584859     -0.843597
Ti       9.57460     13.47758     15.23649         1.069857      0.543972     -0.196946
Ti       9.63095      1.91062      6.65311        -0.768023     -0.602319     -1.291437
Ti       9.66187     13.46943      6.57486         0.327116      0.346462     -0.890027
Ti       9.65284      1.89991     11.01694         0.499313     -0.005992     -1.696273
Ti       9.66465     13.45189     11.17540         0.927679      0.166870     -1.656711
Ti       9.58333      5.75634      2.24118        -0.176952     -0.080256     -0.079334
Ti       9.60406      5.78183     15.35265         0.858367     -0.943695      0.176040
Ti       9.64017      5.84178      6.60255        -0.434251     -2.214127     -1.120172
Ti       9.59221      5.75877     10.83671         0.873280      0.224284     -0.679645
Ti       9.67604      9.63378      2.36878        -1.083068      0.004159     -0.916152
Ti       9.57681      9.64470     15.43779         0.718998      0.600545     -1.595799
Ti       9.61318      9.63897      6.61204         0.276992      0.407385     -0.745292
Ti       9.69189      9.58112     10.95306         0.190564      0.412733     -1.332198
O       1.95286      1.97082      0.62991         0.211877     -0.251467     -0.458109
O       1.80846      1.92098     13.60645         0.516131     -0.312974     -0.301455
O       2.04830     13.44444      0.61478        -0.157987      0.420960     -1.078362
O       1.94236     13.49946     13.65108        -0.008004      0.404459     -1.341797
O      13.36716      1.80614      0.38934         0.012047      0.385562      1.047211
O      13.44924      1.89058     13.39713         0.566135     -0.506179      0.810316
O      13.54482     13.32363      0.55008        -0.673639      0.205910      0.136116
O      13.44920     13.70589     13.57087         0.583664     -0.248625     -1.158197
O       1.93300      1.93571      4.75231        -0.024172     -0.269527      0.163881
O       1.93775     13.47703      4.88686         0.063250      0.346507     -1.998414
O      13.51241      2.01503      4.95098        -0.160875     -0.398077      0.331381
O      13.53871     13.62985      4.92393        -0.066598     -0.330707      0.693735
O       1.84422      2.01060      9.15209         0.332137      0.137220      0.899258
O       2.16085     13.40322      9.23808        -0.611900      0.401100     -0.291187
O      13.48576      1.98776      9.10216         0.191075     -0.034267      0.446245
O      13.35815     13.42427      9.27206         0.339710     -0.468878     -0.739121
O       1.78900      5.82521      0.49134         0.496174     -0.475471     -0.283386
O       1.84685      5.61713     13.54776        -0.092504      0.474779      0.138411
O      13.35035      5.69659      0.32808         0.331773     -0.060614      1.012317
O      13.60154      5.89099     13.59940        -0.444642      0.260727     -0.002960
O       1.78822      5.88571      4.76490         0.062482     -0.514623      0.757840
O      13.51664      5.79252      4.80552        -0.016670     -0.182291      0.732561
O       1.88530      5.67646      9.29692         0.231630     -0.150779     -1.738211
O      13.54275      5.59350      9.08955         0.163701      0.480417     -0.054348
O       1.95512      9.70686      0.57316        -0.075735     -0.508344     -0.209630
O       1.91142      9.88097     13.49055         0.154057     -1.104959      0.274835
O      13.56622      9.83056      0.46598        -0.396869     -0.358584      0.529800
O      13.49166      9.48026     13.62955        -0.245704      0.050081     -1.180342
O       1.85413      9.58845      4.83399        -0.356852      0.057496      0.282901
O      13.63508      9.65376      4.92379        -0.204114     -0.088156     -0.446013
O       1.91177      9.57499      9.11654        -0.180224      0.247184      1.414519
O      13.62447      9.82926      9.19944        -0.058474     -0.571474      0.271547
O       5.87009      1.83892      0.34683        -0.371757     -0.053934      1.082145
O       5.75025      1.80985     13.48905         0.208121      0.089092      0.471621
O       6.00826     13.27682      0.43681        -0.637204      0.736161      1.466528
O       5.75347     13.48684     13.51643         0.303092      0.006374      0.483677
O       5.82677      1.84883      4.75859        -0.045286     -0.064247     -0.006627
O       5.79864     13.27323      4.90037         0.109365      0.536284     -0.103617
O       5.72571      1.96560      9.22323        -0.250847     -0.025665     -0.520965
O       5.73363     13.44905      9.03977         0.240605      0.210582      0.811395
O       5.69063      5.80339      0.53670         0.614597     -0.197486     -0.134172
O       5.76571      5.61036     13.52338         0.473529      0.321183      1.231249
O       5.79128      5.83893      4.78142        -0.196133     -0.580125      0.183645
O       5.72922      5.66652      9.16300        -0.207652      0.493592      0.945401
O       5.65793      9.75640      0.46992         0.387897     -0.807581      1.104862
O       5.77316      9.75400     13.44515        -0.153626     -0.116841      0.000018
O       5.66094      9.52179      4.77652         0.276985      0.572461      0.843213
O       5.85043      9.50292      9.25073        -0.239214      0.327772      0.380894
O       9.63938      1.83931      0.38603        -0.141413     -0.048830      0.891803
O       9.73624      1.95654     13.42242        -0.221995      0.132404     -0.488503
O       9.46772     13.34817      0.53290         0.580166      0.421234      0.115657
O       9.59116     13.45356     13.42677        -0.087841     -0.239867     -0.513956
O       9.58027      1.76540      4.81982        -0.036272      0.121818      0.724418
O       9.77228     13.60446      4.74322        -0.377420     -0.380801      0.736688
O       9.74823      1.88718      9.18964        -0.386882      0.274509      0.348549
O       9.58570     13.40693      9.38685         0.316395     -0.048456     -0.215946
O       9.33008      5.81120      0.44175         0.914664     -0.150388      0.584216
O       9.58795      5.60687     13.58221        -0.105821      0.783553     -0.098532
O       9.64821      5.83504      4.76663         0.022789     -0.028344      0.584901
O       9.65196      5.88026      9.03460        -0.260286     -0.583083      0.504610
O       9.54467      9.59080      0.54373         0.483791      0.006971      0.276620
O       9.58311      9.52048     13.60648         0.462615      0.067534      0.667975
O       9.59297      9.47252      4.78379         0.313387      0.240712      0.743406
O       9.59269      9.49617      9.08983        -0.022653      0.285529      0.906976
O       3.82843      1.86668      2.70028         0.581683      0.043666     -0.149377
O       3.81230      1.85966     15.69213         1.423731     -0.053977      0.158938
O       3.97189     13.48552      2.65935        -0.241276     -0.188886      0.310158
O       3.83732     13.52207     15.76188         1.098454     -0.272845      0.098174
O      15.35900      1.95582      2.51517         0.080543     -0.246577      0.628810
O       0.03446      1.87364     15.68417        -0.686865      0.221883      0.130016
O      15.45076     13.65406      2.69795        -0.320757     -0.423047      0.313072
O       0.00210     13.48751     15.74365        -0.225889      0.319102      0.126323
O       3.91382      1.84650      6.87294        -0.985079      0.442585      0.410723
O       3.86677     13.46167      6.88523         0.388759     -0.016240      0.404012
O       0.05268      1.82485      6.93097        -0.416072      0.055453      0.239239
O       0.06424     13.53467      7.07881        -0.855378     -0.086686      0.175883
O       3.88041      1.91209     11.27098        -1.118416      0.325142      0.622652
O       3.86936     13.49324     11.26116         0.450621      0.147060      0.750108
O      15.41137      1.82845     11.32084         0.625234      0.406036      0.219248
O       0.00483     13.69896     11.22760         0.335269     -0.178126      0.416916
O       3.88235      5.78714      2.63366        -1.004064     -0.689843      0.344990
O       3.79407      5.53706     15.67543         0.458597      0.902666     -0.134656
O      15.40792      5.66279      2.41230        -0.956814      0.199133      0.395123
O      15.40034      5.72912     15.67975         0.641285      0.066463      0.324243
O       3.81295      5.82433      6.94742        -0.325493     -0.400027      0.027321
O      15.44386      5.82478      7.04637         0.595161     -0.237901     -0.043254
O       3.85213      5.72133     11.54338        -0.604915     -0.079197     -0.507076
O      15.35791      5.80408     11.37818         0.348930      0.231242     -0.118545
O       3.80026      9.66023      2.69346         1.357345      0.281247      0.289767
O       3.80448      9.78235     15.64397         0.360146     -0.946437     -0.007338
O       0.04437      9.66807      2.64485        -1.501013     -0.373053      0.211708
O       0.00225      9.78814     15.57026        -0.790992     -1.114065      0.494592
O       3.78914      9.52020      6.86649         0.437064      0.440525      0.665809
O      15.40535      9.65648      7.08053         0.061021     -0.118085      0.091439
O       3.73652      9.65607     11.27472         1.464539      0.012580      0.525463
O       0.00750      9.53802     11.53448        -0.515331     -0.282261     -0.403967
O       7.72314      1.80753      2.56547        -0.448604     -0.263901      0.204505
O       7.80402      1.75601     15.53046        -0.960541      0.140002      0.251800
O       7.75853     13.60346      2.70884        -0.562384     -0.301795      0.422504
O       7.71095     13.37987     15.57576        -0.334968      0.396657      0.155195
O       7.64029      1.89696      7.10619         0.904755     -0.039985     -0.221193
O       7.78347     13.46002      6.98765        -0.712784     -0.661733      0.219398
O       7.65219      1.89190     11.10956         2.064113     -0.060368      1.204913
O       7.68666     13.46993     11.30626        -0.071659      0.088438      0.582179
O       7.72421      5.68151      2.79876        -0.283256      0.635450     -0.455086
O       7.64767      5.77321     15.66841         1.110266      0.065544      0.066251
O       7.76367      5.69054      6.98594        -0.922713      0.248435     -0.085210
O       7.78197      5.81370     11.32082        -1.046933      0.325818      0.183487
O       7.65896      9.48028      2.70404         0.211048      0.501067     -0.199920
O       7.71314      9.54743     15.58684        -0.411516     -0.019562      0.425243
O       7.74920      9.74973      6.92099        -0.075443     -1.066008      0.314638
O       7.72495      9.54390     11.37454        -0.266931      0.146839     -0.067889
O      11.51105      1.89144      2.64093         0.403794      0.326851      0.301299
O      11.63768      1.76996     15.63907        -1.053383      0.167921     -0.109028
O      11.58752     13.37310      2.67363        -0.401248      0.309699     -0.314154
O      11.58605     13.49979     15.57099        -0.597358     -0.162490      0.754073
O      11.50824      1.85796      6.98415         0.641034      0.046336      0.055603
O      11.57152     13.46837      6.95866         0.123006      0.288675      0.569798
O      11.62776      1.99720     11.25279        -1.192057      0.064422      0.636637
O      11.61479     13.40936     11.50327        -0.677570     -0.231768      0.098940
O      11.43605      5.73068      2.61643         1.191833      0.133310     -0.363422
O      11.53005      5.71543     15.62798        -0.713472      0.370405      0.282575
O      11.56550      5.72406      6.98662         0.619899     -0.142505     -0.100614
O      11.54919      5.71197     11.15815        -0.010893      0.359030      0.759559
O      11.56776      9.65578      2.68689         0.417107      0.194716     -0.234930
O      11.51632      9.68004     15.74658         0.352705     -0.273766      0.348129
O      11.63192      9.51860      6.94157        -1.050294      0.247633      0.235283
O      11.58293      9.75195     11.23814         0.321374     -0.283647      0.561535
O       1.91421      3.82804      2.71306         0.447481      0.378115      0.049826
O       1.95333      3.79105     15.77193        -0.779100      0.347736      0.158727
O       1.96309     15.43926      2.70537         0.208524      0.469965      0.319665
O       1.94777     15.40472     15.91445        -0.127552      0.781694     -0.396895
O      13.38774      3.82653      2.67812         0.221728      0.277220     -0.427445
O      13.36933      3.77549     15.53048         0.641468      0.234455      0.493168
O      13.42966     15.43698      2.69310        -0.162002      0.335379     -0.108963
O      13.61280     15.43878     15.75767        -0.381223     -0.115235     -0.129862
O       1.91411      3.79713      6.81087         0.056176      1.193208      0.565077
O       1.95991     15.46018      7.15604         0.216235     -0.211675     -0.658986
O      13.72368      3.84404      6.91776        -0.696464      0.157905      0.349185
O      13.58195     15.45329      7.14895        -0.400827     -0.171818     -0.019559
O       1.80241      3.86572     11.44199         0.029945     -0.813937     -0.173618
O       1.96233      0.04359     11.31273         0.080418     -0.038360      0.348215
O      13.51097      3.94905     11.42015         0.377308     -0.567775     -0.052845
O      13.40240     15.43771     11.10653         0.105929      0.233198      0.779761
O       1.88827      7.66082      2.66215        -0.085661      0.166617      0.053535
O       1.94989      7.70091     15.58453        -0.336654     -0.389148      0.098889
O      13.43386      7.67904      2.39765         0.129457      0.238361      0.132635
O      13.49943      7.70026     15.79796        -0.090514      0.341470      0.142082
O       1.86139      7.71098      6.97620        -0.323847     -0.772982      0.205150
O      13.51473      7.66295      7.05174         0.017826      0.258015      0.054190
O       1.93357      7.62540     11.22695        -0.006336      0.486595      0.902824
O      13.33416      7.73525     11.23781         0.702930     -0.439491      0.157139
O       1.82929     11.68877      2.68216         0.529647     -1.328235      0.592741
O       1.83583     11.55113     15.70797         0.633863      0.379667      0.305317
O      13.56882     11.56783      2.72205        -0.193598     -0.611316      0.225259
O      13.50581     11.61115     15.55046        -0.257177     -1.216674      0.346638
O       1.89515     11.58072      7.06118         0.236234     -0.351255     -0.198004
O      13.48133     11.61456      6.99065         0.159308      0.216669      0.428045
O       1.89167     11.57440     11.34023        -0.340631      0.144096      0.044869
O      13.74808     11.57001     11.45985        -0.674563     -0.589740     -0.023825
O       5.78981      3.75179      2.58835        -0.090197     -0.135449      0.105440
O       5.87162      3.75262     15.61024         0.041445     -0.020212      0.241212
O       5.76002     15.38495      2.56294         0.042347      0.278381      0.339835
O       5.78848     15.34443     15.68671         0.171540      0.988522      0.067517
O       5.75347      3.82816      6.98884        -0.122169      0.036775     -0.204733
O       5.76540     15.39232      6.87533         0.230383     -0.260985      0.205934
O       5.82411      3.91406     11.28336         0.058008     -0.951933      0.707849
O       5.77086     15.38124     11.42090         0.061621      0.305891     -0.307177
O       5.67986      7.66980      2.61199         0.426177      0.663967      0.004601
O       5.68322      7.72967     15.54335         0.226831     -0.708700      0.199588
O       5.77433      7.69823      6.89795         0.491825     -0.551503      0.614279
O       5.60859      7.69404     11.46467         0.688730      0.347008     -0.130183
O       5.95528     11.55912      2.76165        -0.546100     -0.451031     -0.239371
O       5.77312     11.48817     15.61604         0.235936      1.642503      0.221114
O       5.76000     11.44100      7.05414        -0.104190      0.944525      0.159502
O       5.72668     11.62873     11.15734         0.214254     -1.114950      0.615553
O       9.60153      3.77846      2.50200        -0.150980      0.667209      0.444313
O       9.58437      3.76352     15.64361         0.067314      0.644407      0.174906
O       9.80672     15.39090      2.49397        -0.331056      0.189515      0.505822
O       9.66571     15.32932     15.44627        -0.076107      1.017886      0.718988
O       9.63030      3.79681      6.83397        -0.013660     -0.267358      0.636131
O       9.52360     15.33134      6.98386         0.681650      0.908249      0.262859
O       9.62259      3.91016     11.27737        -0.234905     -0.995607      0.234253
O       9.66735      0.00946     11.26954        -0.108961     -0.291433      0.747949
O       9.66576      7.72612      2.69049        -0.097727     -0.617874     -0.254997
O       9.64441      7.62412     15.84798        -0.195704      0.672395     -0.671229
O       9.70571      7.57792      6.95964        -0.328223      3.011150      0.162980
O       9.72353      7.66554     11.27873        -0.087954      0.380730      0.633377
O       9.57932     11.57986      2.70887         0.041778     -0.765420      0.297128
O       9.62342     11.63116     15.59585         0.236043     -1.785381      0.308953
O       9.67840     11.52399      6.82386         0.164435      0.056216      0.372771
O       9.63554     11.47043     11.36589        -0.422482      0.418059      0.519362
