  # total energy = -7882.85422910 
CRSYTAL
PRIMVEC
    15.464    0.0000000000000000    0.0000000000000000
     0.0000000000000000   15.464    0.0000000000000000
     0.0000000000000000    0.0000000000000000   17.350608
PRESSURE
-0.044121 -0.012921 0.120555 -0.390516 -0.035582 -0.032777
PRIMCOORD
320 1
Pb       3.98475      3.82623      4.39170        -0.996535      0.306166      0.376115
Pb       3.99206      3.77021     17.16742        -0.492468      0.389935      0.945829
Pb       3.82120      0.14235      4.25492         0.121671     -0.581804      0.474772
Pb       3.97824      0.07668     17.26643        -0.666630     -0.528487      0.365761
Pb       0.10680      3.82272      4.41577        -0.347737      0.217245     -0.209025
Pb      15.41125      3.73065     17.28293        -0.050786      0.033809      0.450498
Pb      15.34746     15.42880      4.12765         0.719665      0.268915      1.773783
Pb      15.40543      0.01027     17.32557         0.096941     -0.184840     -0.114303
Pb       3.81674      3.91349      8.59433         0.354478     -0.545579      0.178392
Pb       3.88394     15.38552      8.53557        -0.403858      0.116710      0.946970
Pb      15.40906      3.79046      8.54578        -0.424097      0.262627      0.618933
Pb      15.39054     15.42593      8.58884         0.069490     -0.348246      0.666818
Pb       3.75662      3.77921     12.90323         0.301624      0.299202      0.340565
Pb       3.90023     15.33859     13.02403        -0.070374      0.478093      0.071126
Pb       0.05717      3.96232     12.93069        -0.350635     -0.808883      0.477391
Pb       0.06782      0.08733     12.92860        -0.632699     -0.304103      0.541594
Pb       3.75405      7.80595      4.22119         0.227527     -0.470906      0.613064
Pb       3.70648      7.66182     17.34113         0.193270      0.233760      0.413774
Pb      15.34711      7.72967      4.24604         0.439091     -0.370484      0.212165
Pb      15.40991      7.70468     17.25701         0.285118      0.006568      0.624878
Pb       3.94372      7.81899      8.63872        -0.113823     -0.060933      0.047807
Pb       0.13242      7.62517      8.75167        -1.028153      0.401076     -0.214049
Pb       3.85515      7.69458     12.92968         0.016584      0.151312     -0.404646
Pb       0.06901      7.82473     12.88662        -0.715052     -0.243112     -0.049281
Pb       3.90513     11.65303      4.31122        -0.136278     -0.200796      0.413852
Pb       3.95191     11.55924     17.28854        -0.477466     -0.044614      0.571000
Pb      15.32761     11.65537      4.29698         0.138105     -0.679451      0.333933
Pb      15.46071     11.63507     17.27253        -0.438364     -0.410953      0.257859
Pb       3.85560     11.60853      8.71448         0.020702     -0.172395     -0.440974
Pb      15.32963     11.56271      8.55071         0.262427     -0.045058      0.629765
Pb       3.81330     11.49207     13.00424         0.471484      0.265514     -0.082131
Pb      15.44582     11.68006     12.82248        -0.409562     -0.191698      0.590247
Pb       7.71202      3.79403      4.40336        -0.183259      0.318740     -0.382374
Pb       7.77520      3.82864     17.29503        -0.484042      0.476602      0.288842
Pb       7.82818     15.42922      4.25271        -0.869218     -0.014118      0.228687
Pb       7.64960      0.02965      0.04379         0.151361      0.051718      0.143414
Pb       7.79574      3.94258      8.52595        -0.372342     -0.208174      1.170300
Pb       7.75258      0.06319      8.59710        -0.388446     -0.855249      0.619559
Pb       7.76323      3.81030     12.95668         0.003165      0.114485      0.321770
Pb       7.90135      0.02480     13.05992        -0.936822     -0.552576      0.166821
Pb       7.73099      7.80884      4.30560        -0.238829     -0.030204     -0.119562
Pb       7.80036      7.72356     17.34300        -0.519161     -0.116626     -0.024696
Pb       7.81572      7.69227      8.66976         0.039079     -0.553676      0.425118
Pb       7.72266      7.68841     13.00662         0.028594     -0.215632     -0.319301
Pb       7.74570     11.65594      4.32848        -0.269179     -0.456360     -0.021906
Pb       7.67834     11.50094     17.28984        -0.135434     -0.158792      0.469098
Pb       7.65520     11.67445      8.52117        -0.140928     -0.087841      1.142482
Pb       7.75613     11.48527     12.95322        -0.284041      0.680961     -0.189602
Pb      11.42947      3.81124      4.44875         0.813197     -0.229779     -0.451145
Pb      11.49102      3.90339     17.31387         0.666832     -0.246529      0.281548
Pb      11.62531     15.37501      4.33446        -0.402473      0.243022      0.042391
Pb      11.53882      0.03684      0.04687         0.417867     -0.146028      0.139951
Pb      11.63197      3.92226      8.75251         0.268802     -0.347890     -0.638859
Pb      11.45877     15.36884      8.50068         0.473979      0.423693      0.655025
Pb      11.61986      3.90643     13.02033        -0.029775     -0.607518      0.259612
Pb      11.51381     15.37360     13.09545         0.540555      0.363171     -0.086773
Pb      11.57333      7.68032      4.22283         0.382829      0.168502      0.504448
Pb      11.56014      7.63385     17.23466         0.371919      0.801735      0.876719
Pb      11.55663      7.61356      8.75377         0.240297     -0.076329     -0.473261
Pb      11.45608      7.64756     13.02381         0.277217      0.392655     -0.245786
Pb      11.51359     11.63689      4.29214         0.513754     -0.395238     -0.016848
Pb      11.50610     11.69761     17.23249         0.359941     -0.826582      1.147603
Pb      11.38110     11.54143      8.58053         0.803140      0.309690      0.268405
Pb      11.59425     11.65806     12.79282        -0.022452     -0.761147      1.279330
Ti       1.82665      1.92237      2.34928         0.816383      0.196821      0.030435
Ti       1.92902      1.82048     15.33362        -0.059395     -0.602682     -0.137728
Ti       1.94998     13.50071      2.36717         0.036644     -0.416318      0.666762
Ti       1.85682     13.37654     15.38764         0.794121      1.588802     -0.685004
Ti      13.43386      1.88798      2.38489        -0.051363      0.823799     -1.348531
Ti      13.49932      1.89448     15.38746         0.024838     -0.506551     -1.510371
Ti      13.54421     13.50575      2.34735        -1.241372     -0.699988     -0.246316
Ti      13.40786     13.49627     15.37083         0.623682     -0.028841      0.437573
Ti       1.87833      1.81271      6.82834         0.488844      0.589708     -0.907189
Ti       1.88069     13.44515      6.60305         0.345594     -0.021808      0.289433
Ti      13.44683      1.88049      6.55827        -0.358914      0.923458      1.005371
Ti      13.46299     13.55172      6.69416        -0.066126     -1.162308     -0.760806
Ti       1.97853      1.88439     11.03550        -0.812431      0.369328     -0.869953
Ti       1.99429     13.56652     10.98808        -1.334207      0.025476     -0.557784
Ti      13.41176      1.94463     11.07555         1.137089     -0.273577      0.149746
Ti      13.44344     13.59539     11.02513         0.849081     -0.475446     -0.711564
Ti       1.92381      5.71753      2.39585        -0.342355      0.949866     -0.973837
Ti       1.91947      5.61557     15.34094         0.078571      0.790643     -0.719714
Ti      13.48567      5.63089      2.25994         0.705399      0.381012      1.210107
Ti      13.58530      5.75585     15.34710        -0.150520     -0.057610     -0.460674
Ti       1.94765      5.79123      6.76179        -0.084895     -0.577236      0.061950
Ti      13.49823      5.80011      6.51163        -0.281641     -0.671897      1.337491
Ti       1.94115      5.80835     10.85058        -0.599074     -0.855494      3.062640
Ti      13.48754      5.79771     11.04828         0.478579      0.453351      0.322458
Ti       1.91267      9.65958      2.36245        -0.251292     -0.219508     -0.494187
Ti       1.86622      9.59150     15.27228         0.194086     -0.092246      0.157553
Ti      13.52726      9.53828      2.31521        -0.870437      0.695119      0.218564
Ti      13.44374      9.62668     15.33415         0.523338      0.449580      0.349846
Ti       1.86297      9.60008      6.72601        -0.023704      0.556331     -1.277329
Ti      13.41330      9.58044      6.68627         0.636209      0.149738      1.432493
Ti       1.95035      9.75013     10.98796        -0.369194     -0.769797     -0.848246
Ti      13.38652      9.65037     10.90187         1.654286     -0.464204      0.034149
Ti       5.74697      2.00346      2.35456        -0.218733     -0.722736     -0.182382
Ti       5.90273      1.99119     15.19767        -0.308484     -0.545653      1.836586
Ti       5.78178     13.54692      2.34107        -0.072796      0.133593      0.140541
Ti       5.80832     13.55835     15.39360        -0.611240     -0.450337      0.421901
Ti       5.78100      1.89882      6.71771        -0.664174      0.154324     -0.158932
Ti       5.71061     13.53187      6.69131         0.288864     -0.963421     -1.771689
Ti       5.88341      1.95475     10.94155        -0.292635     -0.987842      0.475528
Ti       5.73831     13.57617     11.00076         1.547968     -0.549643     -0.885629
Ti       5.81227      5.74798      2.37158        -0.230604      0.612547     -0.368647
Ti       5.77492      5.88169     15.23910         0.472697     -1.136140      0.147604
Ti       5.89103      5.78909      6.69648        -0.505528     -0.314492      1.314372
Ti       5.77893      5.74601     10.99036         1.600552      0.111233     -1.376458
Ti       5.87741      9.66178      2.26457        -0.228353     -0.294846     -0.737516
Ti       5.72551      9.62089     15.27773         0.251897      0.282201     -0.073644
Ti       5.83001      9.58693      6.77352         0.110291      0.845022     -1.598667
Ti       5.77467      9.64684     10.94410        -0.028514      0.321282     -0.224767
Ti       9.56025      1.92929      2.25743         0.962480     -0.694377      0.456277
Ti       9.73638      1.92158     15.44208        -0.827206      0.081653      0.238914
Ti       9.65843     13.55153      2.36468        -0.208970     -0.780896      0.161244
Ti       9.51977     13.57407     15.53244         1.045327     -0.449974     -1.237567
Ti       9.56637      1.84548      6.54885         0.955888      0.374192     -0.326450
Ti       9.57501     13.52072      6.58123        -0.191396     -0.021308      0.160759
Ti       9.67042      1.80089     10.95467         0.357100      0.513305      1.678035
Ti       9.60569     13.46968     10.91558        -0.745878      0.114376      0.141039
Ti       9.66908      5.69538      2.41372        -0.739612      0.440223      0.061236
Ti       9.67425      5.78440     15.40553        -0.889118     -0.042998     -1.007593
Ti       9.70142      5.68631      6.55459         0.469135      0.426270      1.910817
Ti       9.61558      5.64962     11.02813        -0.215540      0.597319     -0.693924
Ti       9.75355      9.61908      2.28088        -0.288183      0.505001     -0.414193
Ti       9.65517      9.67164     15.31495        -0.186166     -0.094900     -0.673307
Ti       9.63281      9.61719      6.69750        -0.454063     -0.512255     -0.802621
Ti       9.55639      9.58757     10.96877         0.515568     -0.203155      0.319292
O       1.88192      1.85820      0.60772        -0.193029      0.263398     -0.211799
O       1.92057      1.94653     13.55966         0.189202     -0.318441      0.637117
O       1.83589     13.49000      0.65164        -0.167488     -0.229820     -0.677012
O       1.98668     13.40873     13.60674         0.239022     -0.035879      0.372068
O      13.63904      1.84302      0.55977        -0.421025      0.049713      0.947585
O      13.37615      1.82721     13.59655         0.127164      0.170745      0.744684
O      13.60362     13.46925      0.59571        -0.178556      0.232926     -0.260600
O      13.28324     13.35415     13.64396         0.266465      0.334017     -0.569385
O       1.90161      1.90190      5.07305        -0.109689     -0.033581     -0.241426
O       2.08341     13.49145      4.87046        -0.703942     -0.024271      0.027152
O      13.44103      1.87672      4.81355         0.347401      0.101405      0.222861
O      13.43686     13.57883      4.91992         0.179834     -0.250541      0.150385
O       1.93722      1.79780      9.26330        -0.062444      0.051738      0.312759
O       1.92789     13.59046      9.22945         0.217155     -0.117281      0.467383
O      13.27477      2.00839      9.31953         0.586652     -0.320832      0.277153
O      13.43031     13.58333      9.27253        -0.015325      0.217279     -0.365041
O       1.90329      5.83034      0.62378         0.114244     -0.234343      0.251374
O       1.87954      5.46291     13.52839         0.521249      1.169468      1.563857
O      13.55052      5.74192      0.51389        -0.300424     -0.290975     -0.476708
O      13.59302      5.82993     13.57448        -0.383757     -0.057264      0.529905
O       1.93302      5.75287      5.05307        -0.206937      0.098554     -1.051497
O      13.45298      5.59530      4.79249        -0.012092      0.248140     -0.321285
O       1.78331      5.77302      9.16462         0.430637     -0.029490     -1.530331
O      13.39092      5.83258      9.29021        -0.048548     -0.290319      0.073830
O       1.94563      9.58980      0.58051        -0.182074      0.133480      0.652664
O       2.02886      9.59027     13.44409         0.022107      0.198133      1.063194
O      13.48401      9.52776      0.58988         0.012867      0.278894     -0.615967
O      13.47928      9.70712     13.62184        -0.001892     -0.282874     -0.751511
O       1.75472      9.48884      4.92606         0.078026      0.172012      1.277687
O      13.44518      9.73069      4.98306         0.356306     -0.206055     -1.041843
O       2.03421      9.70641      9.19243        -0.253021     -0.337115      0.854821
O      13.34290      9.53215      9.13734         0.067406      0.190781      0.454731
O       5.59132      2.15047      0.60339         0.677318     -0.466631      0.072596
O       6.02070      1.87886     13.51267        -0.550671     -0.088989     -1.170558
O       5.79233     13.52884      0.58539         0.162715     -0.143821      0.103750
O       5.96209     13.46742     13.65514        -0.488809      0.183846     -0.262763
O       5.72068      1.92395      4.94745         0.109205      0.023769      0.034478
O       5.65344     13.39509      4.87862         0.372875      0.321039      0.980750
O       5.88961      1.84103      9.18397        -0.195751      0.236400      0.288104
O       5.67165     13.51352      9.21837         0.079537      0.154654     -0.002926
O       5.84971      5.56020      0.62061        -0.166262      0.381533      0.246938
O       5.86200      5.79367     13.45723        -0.473719      0.423672      0.979099
O       5.85874      5.79364      4.99106         0.147473     -0.044193     -1.014014
O       6.10232      5.66794      9.17606        -1.019684      0.213153      1.472165
O       5.73466      9.71274      0.45153         0.388540     -0.097545      1.593370
O       5.70335      9.63117     13.42650        -0.150810     -0.137873      1.581088
O       6.17368      9.57607      4.95691        -0.866213     -0.012661      1.371980
O       5.66660      9.66578      9.15460         0.074743     -0.326274      0.381901
O       9.63896      1.95652      0.48515         0.129080      0.090761     -0.062686
O       9.74564      1.87727     13.72208         0.040404     -0.112041     -1.120323
O       9.69940     13.57232      0.62065        -0.175343     -0.188553     -0.952429
O       9.49829     13.48340     13.76463         0.186312      0.116697     -0.004215
O       9.51041      1.76344      4.75688         0.089050      0.550950      0.786643
O       9.53354     13.64023      4.82843         0.126979     -0.356251     -0.407671
O       9.63866      1.77921      9.24551         0.103729     -0.020292     -0.849794
O       9.63325     13.58884      9.15970         0.183547     -0.063877     -0.040906
O       9.55802      5.66346      0.64011         0.363254      0.234165     -0.307844
O       9.62781      5.83893     13.63553         0.302348     -0.077481      0.228544
O       9.67013      5.61859      4.83034        -0.056405      0.199417     -1.407824
O       9.63156      5.53617      9.23880         0.131602      0.522147      0.661144
O       9.81165      9.60222      0.49631        -0.409875     -0.031681      0.456324
O       9.61072      9.56984     13.50134         0.084277      0.210147      0.829740
O       9.45496      9.55041      4.91539         0.396666      0.180668      1.103112
O       9.65113      9.63314      9.21810         0.248892     -0.136468     -0.115813
O       3.81676      1.99546      2.81557        -0.203528     -0.191511     -0.183310
O       3.88551      1.78819     15.68537        -0.239661      0.363365     -0.470503
O       3.84733     13.42634      2.69487         0.014887      0.123204     -0.083071
O       3.87158     13.64399     15.85929         0.225949     -0.845618     -0.737117
O      15.42859      1.97914      2.83779         0.383181     -0.534863     -0.351381
O      15.40561      1.82637     15.73764         1.299710      0.374600     -0.029325
O      15.35319     13.50001      2.84024         1.232380      0.175547     -0.444288
O      15.43518     13.43791     15.63140        -0.235576     -0.132263      0.372966
O       3.78716      1.99426      7.18400         1.127716     -0.526499     -0.274155
O       3.82756     13.34779      7.02345        -0.239920      0.420255      0.262629
O      15.39727      1.87590      7.20910        -0.444036     -0.320020     -0.773283
O      15.36557     13.54856      7.05285         0.766039      0.007652     -0.166097
O       3.85383      1.90401     11.48821         1.071738     -0.415459     -0.458652
O       3.87668     13.61850     11.41295         0.161356     -0.106282      0.297505
O      15.45824      1.87073     11.46513        -0.195981      0.168031     -0.495374
O       0.04442     13.48921     11.38055        -0.245550      0.082066     -0.036947
O       3.82148      5.75233      2.78493         0.510909      0.254350     -0.011715
O       3.86241      5.87339     15.74550        -0.011955     -0.243936     -0.621264
O      15.34185      5.77362      2.70629         0.898730     -0.250533      0.314995
O       0.00774      5.72905     15.75592         0.340566      0.143800     -0.205738
O       3.94420      5.68129      7.07385        -0.592934      0.334994      0.238772
O      15.36042      5.81623      7.04183         0.792992      0.363396      0.098024
O       3.90227      5.68841     11.20286        -0.776835      0.478711      0.097181
O      15.45167      5.66012     11.44795         0.319608      0.836308     -0.955203
O       3.77395      9.60815      2.82442         0.879348      0.522118     -0.683461
O       3.85096      9.64789     15.84515        -0.043449     -0.367601     -1.172321
O      15.36053      9.48183      2.73234         0.675569      0.972861     -0.063640
O      15.41692      9.67567     15.66922         0.685790     -0.284848     -0.058761
O       3.82883      9.74529      6.96285         0.361551     -0.873885      0.244776
O      15.34766      9.44853      7.27186         0.448072      0.484108     -0.814030
O       3.88834      9.51557     11.34807        -0.367015      0.021934      0.259178
O       0.00807      9.79546     11.38631         0.448367     -0.546778     -0.390775
O       7.67370      1.88867      2.53919        -0.255706      0.251636      0.412684
O       7.76786      1.99611     15.71090        -0.731840      0.046365      0.149879
O       7.66850     13.50563      2.78709         0.045775     -0.027710     -0.400967
O       7.71687     13.50272     15.96947        -0.664455     -0.222617     -0.145030
O       7.71971      1.69436      7.00565        -0.409021      0.711015     -0.349428
O       7.66946     13.58864      7.01806        -0.250484     -0.059771     -0.014051
O       7.78499      1.82083     11.44466         0.229828      0.941027     -0.499721
O       7.76824     13.45120     11.30724        -0.013702     -0.324411      0.297347
O       7.71410      5.66424      2.79529         0.281680      0.451883     -0.022775
O       7.68949      5.67218     15.76409        -0.133028      0.355542     -0.158244
O       7.82771      5.86633      7.09394        -0.731104     -0.560439     -0.525258
O       7.76359      5.69215     11.52732         0.014676     -0.163004     -0.383209
O       7.82685      9.66273      2.51608        -0.858201     -0.447629      0.225423
O       7.64674      9.76514     15.64659         0.523059     -0.321691      0.057266
O       7.73932      9.58457      7.30971         0.203302     -0.167699     -0.822915
O       7.65977      9.62573     11.35358         0.476103      0.234089     -0.080297
O      11.52729      1.80281      2.71773        -0.106083      0.390415     -0.333203
O      11.59892      1.93779     15.86336        -0.232272     -0.284475      0.101925
O      11.55148     13.54512      2.82116         0.294584      0.142221     -0.382015
O      11.54569     13.58851     15.89597        -0.283257      0.248071     -0.396070
O      11.52224      1.93572      6.86696         0.182580     -0.055027      0.188763
O      11.48457     13.59150      6.93054         0.186691     -1.056760      0.325014
O      11.62182      1.80975     11.51499        -1.428030     -0.000125     -0.120499
O      11.55129     13.47793     11.40323        -0.609127      0.554278     -0.171995
O      11.55708      5.63208      2.82634        -0.105042     -0.061190     -0.628254
O      11.61965      5.80807     15.75459        -0.578231     -0.439609     -0.294704
O      11.56605      5.52085      7.04008        -0.283971      0.412718     -0.319828
O      11.51549      5.91000     11.41363         0.543079     -0.364655      0.184141
O      11.58968      9.66685      2.88844         0.060658      0.084094     -0.398766
O      11.56665      9.54326     15.70523        -0.699621      0.009674     -0.202363
O      11.52350      9.81253      7.05038        -1.048904     -0.417855     -0.225734
O      11.63968      9.46406     11.28982        -1.774995      0.178389      0.449249
O       1.93113      3.86745      2.83899        -0.471927     -0.627539     -0.094221
O       1.92887      3.79728     15.75196         0.016257     -0.386531     -0.084408
O       1.88367     15.43352      2.76525         0.040033      0.344006     -0.175694
O       1.92371     15.36508     15.80351        -0.385844      0.771516     -0.413911
O      13.54110      3.74008      2.65807        -0.455193      0.711783      0.004726
O      13.54875      3.77071     15.69823        -0.245081      1.337590      0.269024
O      13.47256     15.45762      2.78029         0.236869     -0.592309     -0.383779
O      13.54211     15.45290     15.78875        -0.485385     -0.990297     -0.037874
O       1.88908      3.79349      7.17152        -0.331345      0.793026      0.006954
O       1.95289     15.35590      7.08221        -0.196117      0.117166     -0.040390
O      13.54343      3.88591      7.06859         0.006521     -1.410103     -0.269627
O      13.40073     15.41000      7.03910         0.409781      1.355037      0.043198
O       1.92196      3.85468     11.37454         0.319227     -0.270230     -0.476767
O       1.95991     15.43980     11.51686         0.169248      0.000663     -0.130494
O      13.41766      3.89643     11.52032        -0.131777     -0.574608     -0.544313
O      13.50593     15.38048     11.55693        -0.009411      0.690468     -0.352090
O       1.89519      7.70144      2.77164        -0.174179     -0.297469      0.191888
O       1.95987      7.72042     15.75634        -0.505291     -0.021145     -0.672733
O      13.44022      7.65554      2.66552        -0.535196     -0.253521      0.274560
O      13.48346      7.65734     15.84816         0.398850      0.210900     -0.764500
O       1.97351      7.69486      7.19022         0.052330     -0.156541     -0.021725
O      13.17500      7.65198      6.91537         0.344729      0.333219      0.029418
O       1.86658      7.68990     11.35546         0.330253     -0.173476     -0.348722
O      13.67892      7.69099     11.38726        -0.249057      0.564596      0.017448
O       1.82983     11.57293      2.83456        -0.220968     -0.218577     -0.425165
O       1.92456     11.49818     15.78680         0.287489      0.134377     -0.321938
O      13.47386     11.62773      2.80468         0.057762     -0.595691     -0.230476
O      13.40731     11.57815     15.81570         0.212815     -0.168923     -0.120108
O       1.81479     11.54003      7.03953        -0.430886      0.122455     -0.091057
O      13.52609     11.59395      7.17510        -0.534792      0.107386     -0.569039
O       2.10928     11.59996     11.33084        -0.146000      0.132027      0.154872
O      13.44699     11.59576     11.33995         0.106478     -0.387664     -0.072702
O       5.75002      3.88561      2.90618         0.416572     -0.678042     -0.208563
O       5.60707      3.83237     15.54333         0.781436      0.509198     -0.141348
O       5.73394      0.03455      2.68836        -0.142329     -0.303454     -0.170833
O       5.91088     15.44838     15.80858        -0.147370      0.658442     -0.378819
O       5.88827      3.77544      7.06325         0.081850      0.444301     -0.230402
O       5.70184     15.40637      7.01408        -0.249844      0.202085      0.002312
O       5.85305      3.82159     11.45920        -0.005235     -0.501355     -0.487047
O       6.00984     15.41633     11.33389        -1.053626      0.677893      0.355588
O       5.79644      7.73691      2.68239         0.182022     -0.036879     -0.038042
O       5.91849      7.72405     15.77826        -0.505648      0.040686     -0.685809
O       5.81497      7.67664      7.17776        -0.152317      0.423728     -0.240932
O       5.90587      7.64006     11.31061        -0.633268      0.286709      0.050686
O       5.83166     11.49678      2.80941        -0.232293      0.323553     -0.531670
O       5.70566     11.58287     15.78567         0.444945      0.018678     -0.603530
O       5.82731     11.51829      7.13481         0.000568      0.418429     -0.383745
O       5.73684     11.60339     11.26323        -0.159107     -0.698659      0.574017
O       9.56646      3.75760      2.75159         0.390417      0.308388      0.050023
O       9.67880      3.89774     15.73786         0.334680     -0.307221      0.219560
O       9.55430     15.41303      2.65200         0.110193      0.859754      0.031587
O       9.53302      0.00577     15.82828         0.469310      0.168221      0.115477
O       9.48720      3.78351      6.95609         0.313384     -0.745160     -0.593040
O       9.65450     15.39774      6.96266        -0.246726      0.870358      0.230537
O       9.78347      3.77098     11.41388        -0.265525     -0.333132      0.054186
O       9.60726     15.38899     11.54179         0.850601     -0.001263     -0.871363
O       9.80317      7.70618      2.73149        -0.787646     -0.606790     -0.464104
O       9.52408      7.72538     15.72460         0.304863     -0.164677      0.185267
O       9.74499      7.55175      7.09801         0.083454      1.659504     -0.306548
O       9.51778      7.65531     11.37314         0.385916      0.459327     -0.044736
O       9.68415     11.60849      2.74253        -0.103524     -0.438017     -0.067929
O       9.67756     11.54661     15.75239        -0.153597      0.162025     -0.006286
O       9.42885     11.60923      6.99672         0.976797     -0.509969     -0.264018
O       9.67599     11.50759     11.30092         0.012822      0.240980      0.048157
