  # total energy = -7880.20256315 
CRSYTAL
PRIMVEC
    15.464    0.0000000000000000    0.0000000000000000
     0.0000000000000000   15.464    0.0000000000000000
     0.0000000000000000    0.0000000000000000   17.350608
PRESSURE
-0.668748 -0.553106 2.15807 -0.399581 -0.0041 0.0673
PRIMCOORD
320 1
Pb       3.83694      3.61024      4.25653        -0.302010      0.794559     -0.066650
Pb       3.75238      3.73567     17.28970         0.360934      0.256592     -0.079168
Pb       4.01641     15.36094      4.30188        -0.788139      0.090266     -0.169474
Pb       3.78631      0.05237      0.05920         0.264594     -0.142748     -0.562406
Pb      15.17885      3.82436      4.21979         0.924794      0.401351     -0.021717
Pb      15.44073      3.91753     17.29173        -0.481996     -0.069371      0.608295
Pb      15.32666     15.44766      4.25502         0.691792      0.245531      0.306329
Pb      15.37994      0.04444     17.33835        -0.062830      0.052358     -0.568582
Pb       3.90471      3.78927      8.65377        -0.685161      0.104403     -0.580007
Pb       3.90356      0.05764      8.53572        -0.161719      0.090946     -0.025563
Pb       0.05805      4.03412      8.65547         0.427209     -0.059526     -0.396134
Pb       0.08300      0.07566      8.70135         0.189014      0.071049     -0.174584
Pb       3.90829      3.97495     13.06668        -0.537454     -0.406391     -0.436513
Pb       3.77884      0.18110     12.93858         0.513095     -0.492816      0.541109
Pb      15.33077      3.84960     13.04452         0.592572     -0.080861     -0.710911
Pb      15.41433     15.31450     13.00286         0.051689      0.603033     -0.179807
Pb       4.04953      7.66361      4.30992        -0.504986     -0.564494     -0.764124
Pb       4.04147      7.86747     17.21511        -0.523427     -0.801620      0.223505
Pb       0.12140      7.76374      4.38078        -0.042766     -0.570593     -0.494049
Pb       0.06107      7.75666     17.31682        -0.260116     -0.192555     -0.030321
Pb       3.65423      7.54310      8.64228         0.550489      0.310480      0.148649
Pb      15.21912      7.79912      8.66648         0.471637     -0.003867     -0.111547
Pb       3.85381      7.78815     12.93175         0.000368     -0.363227      0.516292
Pb      15.41982      7.49283     12.95874        -0.314898      0.507268      0.397400
Pb       4.00029     11.46739      4.36072        -0.212746      0.205737     -0.381830
Pb       3.92477     11.57364     17.28783         0.032318      0.112759      0.122375
Pb       0.01473     11.66135      4.28541        -0.087243     -0.447259      0.512859
Pb      15.39774     11.60578      0.04288        -0.131526     -0.420374     -0.467762
Pb       3.94666     11.49481      8.83337         0.344575     -0.375744     -1.071540
Pb       0.12396     11.72798      8.63105        -0.829307     -0.752884      0.267155
Pb       3.85786     11.61785     12.90240         0.367997     -0.064475      0.449447
Pb       0.00784     11.27613     13.16209        -0.500058      0.323019     -0.624189
Pb       7.82942      3.80699      4.26947        -0.844025     -0.113905     -0.103262
Pb       7.66745      3.71366     17.27185         0.149740      0.960522      0.053357
Pb       7.68505     15.45260      4.29347         0.024436      0.192895     -0.322828
Pb       7.72039      0.05913     17.32237        -0.249255     -0.539938     -0.552748
Pb       7.76336      3.81642      8.53727        -0.734490      0.020525      0.086301
Pb       7.82947     15.26619      8.60337        -0.746723      0.292680     -0.253610
Pb       7.76818      3.99746     13.05364        -0.130725     -0.106794     -0.485593
Pb       7.58256      0.03110     12.92105         0.048748     -0.070723      0.349708
Pb       7.81631      7.66755      4.29341        -0.554135     -0.090401     -0.162802
Pb       7.74936      7.84319     17.28019        -0.350794     -0.973922     -0.138690
Pb       7.68198      7.69930      8.64591        -0.229850     -0.532342      0.228641
Pb       7.88072      7.78978     12.96168        -0.102475     -0.947494     -0.122586
Pb       7.75259     11.59948      4.40878        -0.238582     -0.185570     -0.984438
Pb       7.72133     11.73681     17.31646        -0.134144     -0.175412     -0.819263
Pb       7.92817     11.50695      8.63896        -0.810817      0.069843     -0.110711
Pb       7.67498     11.64903     12.87675        -0.509070     -0.149238      0.560700
Pb      11.58808      3.83683      4.27713        -0.043135     -0.024755     -0.749615
Pb      11.49779      3.73932     17.18633         0.457556      0.515115      0.779035
Pb      11.50754      0.04791      4.36592         0.466171      0.321809     -0.719865
Pb      11.58103     15.34267     17.24156         0.127122      0.216896      0.024106
Pb      11.39485      3.84408      8.60034         0.750866      0.102454     -0.331430
Pb      11.65866      0.02231      8.55914        -0.252912      0.114635      0.395992
Pb      11.45520      3.88792     12.88481         0.021843      0.355121      0.385828
Pb      11.38911      0.05721     12.95165         1.196536     -0.348974      0.799057
Pb      11.42183      7.71289      4.30883         0.845233      0.272613     -0.758952
Pb      11.42013      7.63357      0.04093         0.450809      0.094788      0.026381
Pb      11.46574      7.71833      8.56137         0.298856     -0.020971     -0.477547
Pb      11.59593      7.54618     12.91379        -0.209170      0.398314      0.469674
Pb      11.54341     11.78670      4.30766         0.660541     -1.141397     -0.553712
Pb      11.61658     11.61757      0.03704        -0.044653     -0.295858     -0.356060
Pb      11.78641     11.73265      8.73869         0.061958     -0.226147     -0.390218
Pb      11.47099     11.52026     13.02044         0.380172     -0.194544      0.299057
Ti       1.79615      1.88960      2.26880         0.676100      0.129027      2.616913
Ti       1.84197      1.89173     15.28788         0.646492     -0.218847      2.392570
Ti       2.07257     13.51014      2.34938        -0.498371      0.065383      0.525953
Ti       1.88691     13.46111     15.42694         0.557378      1.406144      0.749763
Ti      13.43686      1.89945      2.23692        -0.663247     -0.007448     -0.997806
Ti      13.48964      1.93387     15.20135         0.158194     -0.876809      0.945814
Ti      13.58296     13.54593      2.32031        -1.328103     -0.579845      1.223953
Ti      13.53841     13.48493     15.22513        -0.604930     -0.591961      1.408122
Ti       1.83048      1.92126      6.52757         0.735684      0.678464      0.229534
Ti       1.96975     13.52176      6.65904         0.832484      0.343097      0.601268
Ti      13.51692      2.06101      6.75403        -0.380333     -0.031945      0.442613
Ti      13.62834     13.66197      6.75467        -0.404242     -0.929005     -0.396665
Ti       1.84228      1.93587     11.01839         0.350669      1.167042      0.418472
Ti       1.93440     13.51035     11.00902        -0.882477      0.753062      0.127491
Ti      13.42296      1.93416     10.97164         1.402705     -0.154169      1.467335
Ti      13.52032     13.52368     11.10989         0.377215     -0.267662     -0.340829
Ti       1.97482      5.71592      2.30483        -0.847876      0.368844      1.107078
Ti       1.88732      5.73010     15.41266         0.062310      0.850499     -0.794716
Ti      13.47243      5.80923      2.23366        -0.263848     -0.094034      0.385189
Ti      13.43136      5.75665     15.44963         0.327344      0.932883      0.654982
Ti       1.95538      5.83905      6.59076        -1.083653     -1.272358     -1.292535
Ti      13.44027      5.81432      6.62399         0.668827     -0.120184      0.879973
Ti       1.84580      5.84618     11.08113         1.043484     -1.984667     -1.677541
Ti      13.37831      5.77331     10.83261         0.929120      0.401963      1.028254
Ti       1.95022      9.68527      2.33078         0.517831     -1.055358      0.309977
Ti       1.91252      9.67418     15.34530         0.052209     -1.394004      1.582136
Ti      13.63510      9.66522      2.30012        -1.756892     -0.528280      0.642056
Ti      13.38142      9.51747     15.35797         0.859560      0.416671      1.615600
Ti       1.84428      9.68545      6.69236         0.173289     -0.314840      1.019156
Ti      13.41355      9.71644      6.56603         0.631928     -0.025153      1.507478
Ti       1.83968      9.70088     11.02688         0.504702     -1.161217      0.448803
Ti      13.49093      9.69674     10.96355         0.510511     -1.127302     -0.305653
Ti       5.74689      1.90964      2.20087         0.069396     -0.531480      0.264400
Ti       5.86011      1.92738     15.31928        -1.061483     -0.294913     -1.007119
Ti       5.88091     13.48773      2.25063        -0.738855     -0.105248      0.135655
Ti       5.73197     13.60196     15.33872         0.797086      0.083174      0.533645
Ti       5.77702      1.86828      6.51472        -0.434574      0.758574      3.063885
Ti       5.85505     13.39014      6.69675        -0.834058      0.422493      1.478961
Ti       5.76788      1.98475     10.97268         0.204600     -0.479080      1.016798
Ti       5.72166     13.58412     10.90435         1.290549     -0.146095      1.624286
Ti       5.78449      5.67377      2.22555        -0.495523      0.423680      1.871920
Ti       5.71628      5.72689     15.32078         1.198349      0.952839      1.064799
Ti       5.77477      5.74390      6.57400        -0.383179     -1.040393     -1.035252
Ti       5.70381      5.76490     11.02428         0.823740     -0.258731      2.243560
Ti       5.91694      9.56970      2.25654        -0.890492      0.256454      1.184980
Ti       5.82111      9.71676     15.12945        -0.557327     -0.223939      2.048167
Ti       5.75349      9.55035      6.64407         0.162301      0.096501      1.882553
Ti       5.78659      9.60080     11.07880        -0.176270      0.284596     -1.297428
Ti       9.61999      1.85210      2.18949         0.024885      0.821924      3.280564
Ti       9.70281      1.87114     15.24791        -0.910260      0.313108      0.220100
Ti       9.64886     13.55646      2.30516         0.408689     -0.022656      1.228214
Ti       9.66317     13.52226     15.18524        -0.883464     -0.278646      1.072768
Ti       9.55711      1.84924      6.63868         0.837656      0.795331      0.315957
Ti       9.77442     13.51237      6.49365        -0.917777     -0.026045      2.573455
Ti       9.68756      1.85873     10.91175        -1.493843      0.455808      1.193452
Ti       9.65551     13.40577     11.07274        -0.202070      0.250615      1.382086
Ti       9.53885      5.74270      2.27619         0.870753     -0.417298     -0.956363
Ti       9.58800      5.76370     15.40334        -0.851701      0.640527     -1.288140
Ti       9.58230      5.72925      6.54857         0.423202      0.824126      2.403735
Ti       9.61527      5.73236     10.75998        -1.610990      0.909145      0.286321
Ti       9.66514      9.69733      2.31983         1.079321     -0.132540      1.615753
Ti       9.65294      9.68637     15.34547        -0.275316     -0.963974      1.386665
Ti       9.64086      9.67856      6.58425         0.387672     -0.647351      0.533657
Ti       9.70473      9.61252     10.92299        -0.530401     -1.044542      1.426663
O       1.93617      1.84413      0.57566        -0.269259      0.058362     -1.678269
O       1.85507      1.93665     13.60873        -0.004048     -0.257355     -1.913235
O       2.10421     13.43509      0.59061        -0.571981     -0.051656      0.261955
O       1.94576     13.63046     13.71940        -0.269331     -0.401828     -0.838259
O      13.35334      1.84387      0.46432         0.248009      0.022897      0.338582
O      13.52741      1.70126     13.46862        -0.216798      0.819155      0.401530
O      13.35503     13.28845      0.62915         0.730344      0.506524     -1.232471
O      13.63387     13.50131     13.50413        -0.075110     -0.051303     -0.881842
O       1.88426      1.91656      4.75970         0.071814      0.046972      0.438926
O       2.00557     13.61838      4.95402        -0.153271     -0.572385     -1.326603
O      13.40739      1.92390      5.03051         0.094887      0.128738     -1.380711
O      13.60759     13.79685      5.00203        -0.339268     -0.547147     -0.023118
O       1.90970      1.89266      9.27095        -0.268495     -0.039656     -0.315225
O       1.85300     13.50944      9.25501         0.385905     -0.028528      0.206642
O      13.52870      1.97541      9.24509        -0.264564     -0.273669     -0.207465
O      13.51663     13.40772      9.32714        -0.293294      0.409419     -0.441575
O       1.89593      5.57105      0.56973         0.034789      0.395773     -0.968512
O       1.76164      5.67534     13.62415         0.344043      0.038595      0.382011
O      13.47939      5.58819      0.51416        -0.001246      0.178896     -1.125343
O      13.40025      5.95999     13.72733         0.230046     -0.284022     -1.398682
O       1.92047      5.93440      4.76613        -0.048545     -0.063080      1.245738
O      13.42893      5.79880      4.87717        -0.222980     -0.321520     -0.639148
O       2.01699      5.60320      9.24958        -0.320298      0.873729      0.772075
O      13.59982      5.86362      9.13020        -0.491826     -0.418641     -0.691489
O       1.96074      9.75642      0.57894        -0.147933      0.051310     -0.347472
O       1.96304      9.55560     13.65025        -0.227970      0.755627     -1.618842
O      13.65990      9.77124      0.53809         0.052425      0.294826      0.170553
O      13.31892      9.34946     13.65403         0.457484      0.303516     -1.413788
O       1.74864      9.67832      4.97188         0.514824     -0.456362     -0.579794
O      13.39716      9.67143      4.85560         0.249851     -0.102741     -0.477712
O       1.80527      9.66140      9.29715         0.347812      0.159245     -0.578463
O      13.52895      9.57130      9.18277        -0.342029      0.369255      0.885350
O       5.72327      1.93029      0.42026         0.554590     -0.226953      0.337439
O       5.90430      1.76413     13.50105        -0.328683      0.305925      1.075183
O       5.81843     13.55872      0.48743         0.370656     -0.211976      0.222451
O       5.79793     13.67562     13.59621        -0.275998     -0.157786     -0.107625
O       5.66898      1.99130      4.82948         0.367409     -0.702068     -2.171989
O       5.69435     13.42167      4.98082         0.379067     -0.146300     -0.766698
O       5.82504      2.00054      9.22940        -0.049916      0.109344     -0.072019
O       5.86047     13.52164      9.20039        -0.191396     -0.104717     -1.479234
O       5.84799      5.65929      0.55271        -0.146687      0.173274     -2.250459
O       5.78258      5.67818     13.60447        -0.158159     -0.130849     -1.877656
O       5.71876      5.65272      4.81421        -0.080328      0.624379     -0.122308
O       5.62993      5.72201      9.35048        -0.041868     -0.156171     -2.644637
O       5.88172      9.48024      0.53269        -0.251870      0.646185     -0.475360
O       5.62483      9.75521     13.40434         0.635893     -0.399369     -0.704912
O       5.92173      9.66991      4.91127        -0.301743     -0.057990     -0.612367
O       5.63916      9.62424      9.27910         0.557107     -0.182921      1.050357
O       9.60070      1.82428      0.50905         0.224366      0.083150     -2.564761
O       9.74998      2.02335     13.52185        -0.062128     -0.123814     -0.689319
O       9.71014     13.50495      0.58452        -0.451098     -0.138731     -0.707111
O       9.68635     13.37135     13.43984         0.005695      0.150082     -0.037433
O       9.47933      1.88543      4.89034         0.490103     -0.001829     -0.019321
O       9.73918     13.65247      4.79548        -0.136322     -0.206146     -1.238200
O       9.72519      1.96780      9.16322        -0.444728     -0.404893     -0.022218
O       9.69842     13.28554      9.36847        -0.066393      0.274417     -1.467047
O       9.56239      5.76392      0.50237        -0.108576      0.032753     -0.148068
O       9.59838      5.83493     13.54989         0.253027     -0.201935      0.886187
O       9.60303      5.77197      4.83573         0.152974     -0.281300     -1.862543
O       9.55224      5.70240      8.96699         0.221277      0.319812      0.471197
O       9.60564      9.60902      0.61548        -0.210099      0.235882     -1.478701
O       9.59495      9.45292     13.65574         0.304919      0.396909     -1.614227
O       9.71556      9.63680      4.83820        -0.439543      0.006748     -0.302862
O       9.65754      9.55264      9.20410         0.039871      0.476310     -1.067691
O       3.87127      1.75942      2.56543        -0.155585      0.304995      0.384485
O       3.89551      1.94181     15.60612        -0.838694      0.073448      0.216158
O       3.92151     13.43763      2.75028        -0.164957      0.126066     -0.023697
O       3.89677     13.47226     15.88134        -0.460941      0.417686     -0.732379
O      15.35524      1.86333      2.61918         0.111049      0.078503     -0.050448
O      15.35860      1.80996     15.68630         0.099590     -0.104086      0.051108
O      15.41329     13.48420      2.82603         0.857922      0.413898     -0.833607
O      15.37366     13.49862     15.83044         0.591156     -0.125891     -0.207859
O       3.82750      1.92978      7.06242         0.250002     -0.704417     -0.480629
O       3.84685     13.58823      7.15791         0.806672     -0.354702     -0.169903
O      15.41436      1.99754      6.98155         0.504226     -0.284273      0.352363
O       0.03133     13.49735      7.12920        -0.075438      0.411770     -0.219019
O       3.84577      1.91390     11.43130         0.174241      0.451287     -0.380233
O       3.87578     13.46814     11.43585        -0.703488      0.025616     -0.616914
O      15.41351      1.96126     11.48789        -0.544391     -0.549933     -0.561141
O      15.46180     13.62548     11.33242         0.295566     -0.124562      0.345578
O       3.78869      5.67347      2.73348         0.994983      0.549866     -0.280346
O       3.86174      5.61219     15.73671        -1.233968     -0.171991     -0.035919
O      15.31299      5.60894      2.64048         0.879598      0.289250      0.305276
O      15.41995      5.75184     15.81490         0.344338      0.284815     -0.001244
O       3.83365      5.73153      6.94616         0.133904      0.461529      0.475721
O      15.43602      5.66004      6.95859        -0.181327      0.536621      0.028494
O       3.77461      5.68577     11.43836         0.925516      0.193405      0.511311
O      15.46276      5.78493     11.29474        -1.178005     -0.295969      0.390080
O       3.94782      9.68960      2.80062        -0.233951     -0.331044     -0.324907
O       3.92734      9.60221     15.70180        -0.320485      0.800704     -0.015253
O      15.45730      9.56685      2.82102         0.162964      0.852869     -0.403304
O      15.44674      9.49516     15.71498         0.403464      1.122831     -0.205059
O       3.90549      9.57005      7.10816        -0.737870     -0.058374     -0.428275
O      15.40184      9.63625      7.09173         0.190308      0.216072     -0.414917
O       3.81517      9.72062     11.37742        -0.317474     -0.014863      0.159786
O       0.00299      9.42135     11.48319        -0.573316      0.900276      0.206510
O       7.72121      1.73107      2.72323        -0.608103      0.552305     -0.470333
O       7.72283      1.81285     15.63998         0.955182      0.591973      0.444371
O       7.71029     13.55026      2.81094         0.815042     -0.202477     -0.292514
O       7.78216     13.56428     15.76674        -0.241868     -0.021104     -0.043790
O       7.72544      1.89754      7.07355        -0.043887     -0.041872     -0.148225
O       7.79813     13.30239      7.04886        -0.004577      1.312721     -0.135961
O       7.84916      1.86468     11.51929         0.140503      0.324731     -1.285695
O       7.66656     13.48575     11.36660         0.524570      0.023982     -0.095184
O       7.62746      5.83211      2.72945         0.576196     -0.634381      0.225966
O       7.69878      5.79884     15.61095         0.585708     -0.049491      0.523774
O       7.67882      5.67467      6.83573         0.472674      0.084426      0.597016
O       7.70030      5.78194     11.18488         0.376573     -0.320869      0.577994
O       7.77090      9.70862      2.76372        -0.282952     -0.418312      0.056789
O       7.57630      9.55698     15.75131         1.352914      0.357333     -0.644351
O       7.67039      9.40847      7.22362         0.755818      2.070314     -1.122250
O       7.73158      9.57766     11.38753        -0.042926      0.104490     -0.232190
O      11.51324      1.93758      2.72758        -0.342498     -0.145597      0.075962
O      11.55894      1.84407     15.63058         0.556149      0.357923      0.125331
O      11.56793     13.50172      2.69151         0.347271      0.144678      0.420844
O      11.48777     13.46184     15.78099         0.612499     -0.177704     -0.654940
O      11.57689      1.93732      7.05947        -0.674735     -0.390402      0.270189
O      11.58514     13.56272      7.07139         0.585359     -0.038292     -0.020078
O      11.51922      1.94218     11.49744         0.398258     -0.178615     -0.756924
O      11.62296     13.23565     11.47245        -0.243962      0.400832     -0.330755
O      11.49323      5.64588      2.49617        -0.218628      0.173111      1.027453
O      11.53460      5.82700     15.76056        -0.140037     -0.479572      0.273578
O      11.54062      5.70720      7.06815        -0.398023      0.652406     -0.371970
O      11.47075      5.87601     11.28083         1.357472     -0.765513     -0.498400
O      11.60284      9.69266      2.67769        -0.418227     -0.146087      0.025067
O      11.56063      9.66208     15.87749        -0.767505     -0.249183     -0.281100
O      11.52390      9.63743      7.01182         0.131835      0.142064      0.086893
O      11.60010      9.67314     11.40182        -0.046452     -0.031388     -0.375631
O       1.91804      3.78490      2.65401        -0.192200     -0.414065      0.141826
O       1.74725      3.76625     15.77034         0.691438      0.046368     -0.186207
O       1.90050     15.38890      2.74819         0.054354     -0.280647     -0.512198
O       1.89889     15.45367     15.91513        -0.111517     -0.292249     -0.445855
O      13.36245      3.73319      2.64559         0.429130      0.692308      0.776110
O      13.52986      3.84733     15.61501        -0.409914     -1.158834     -0.190710
O      13.43036      0.01076      2.70224         0.167532     -0.657836      0.024063
O      13.44212     15.35767     15.76384         0.113479      0.158620     -0.279183
O       1.94923      3.84484      7.00966        -0.086741     -0.210123     -0.126844
O       1.90107     15.45830      6.95573        -0.321190      0.537902      0.733781
O      13.38313      3.92604      7.12228         0.478399     -0.588890     -0.251038
O      13.55470      0.03837      7.23206         0.134243     -0.074919     -0.067636
O       1.88274      3.87043     11.42731        -0.190166     -0.745471      0.343500
O       1.98082     15.44912     11.42924        -0.426123     -0.363288     -0.205555
O      13.44005      3.87094     11.44447        -0.103649     -0.045576     -0.336565
O      13.40554     15.41079     11.42667        -0.109536      0.418272     -0.552279
O       1.82592      7.74980      2.62030         0.432748     -0.393795      0.247859
O       1.98719      7.67755     15.63243        -0.024465     -0.117149      0.769061
O      13.44718      7.69827      2.49722         0.067637      0.182032      0.307321
O      13.48788      7.66367     15.93491        -0.126526      0.286334      0.106870
O       1.84213      7.66620      7.13221         0.235148      0.583489     -0.306962
O      13.46109      7.72923      7.05785        -0.116923      0.210887     -0.296207
O       2.02169      7.70275     11.49763        -0.348299      0.346124     -0.523421
O      13.58786      7.59983     11.24681        -0.777864      0.581088      0.470972
O       1.92405     11.50912      2.89773        -0.104578      1.178261     -0.460146
O       1.96048     11.61004     15.80580        -0.369279     -0.846425     -0.407149
O      13.56929     11.59828      2.80677        -0.114142      0.258236     -0.076276
O      13.42746     11.51678     15.52714         0.520527      0.654648      0.537738
O       2.03842     11.57443      7.06034        -0.443802     -0.215727      0.169039
O      13.54023     11.64914      7.15793        -0.317146     -0.154645     -0.662120
O       1.75697     11.57156     11.56991         0.420520      0.331461     -0.472631
O      13.71749     11.50451     11.31587        -0.157499     -0.147539      0.665075
O       5.75655      3.74521      2.47846         0.291198      0.107869      0.777584
O       5.93868      3.87762     15.74099        -0.472895     -1.600549     -0.224430
O       5.83090     15.38387      2.76534        -0.300491      0.038691     -0.222900
O       5.83783      0.06769     15.86534        -0.436244     -1.107223     -0.480375
O       5.73418      3.75504      6.82496         0.360500      0.693777      1.103208
O       5.91934     15.45170      6.98596        -0.187870     -0.836216      0.201974
O       5.86908      3.77497     11.57804        -0.371998      0.801817     -0.566808
O       5.82489      0.03072     11.24128        -0.173635     -0.528826      0.277449
O       5.80864      7.64182      2.53848        -0.369656      0.905234      0.863517
O       5.70610      7.62645     15.63295         0.136190      1.091985      0.026524
O       5.85193      7.59339      6.98209        -0.547015      0.675543      0.089176
O       5.76723      7.62124     11.42876        -0.367424      1.314850      0.062499
O       5.88893     11.60714      2.64709        -0.062861     -0.491316      0.238670
O       5.86534     11.61409     15.66016        -0.219882     -0.178186     -0.061437
O       5.80965     11.51805      7.15669        -0.156654     -0.156961     -0.262135
O       5.82259     11.57019     11.38377        -0.448567      0.302845     -0.208167
O       9.41720      3.80679      2.61985         0.653660     -0.141837      0.013407
O       9.62208      3.85555     15.70787         0.060145     -0.779341     -0.067832
O       9.69985      0.00835      2.70379        -0.212437     -0.797862      0.013149
O       9.63169      0.00066     15.51015         0.373227     -0.883015      0.235940
O       9.62948      3.84335      7.02973        -0.008046     -0.684390     -0.443680
O       9.69438     15.43605      7.04100        -0.373901     -0.602171     -0.015832
O       9.70932      3.92875     11.25995        -0.040562     -1.435549      0.056315
O       9.74525     15.31564     11.44728        -0.320477      0.916662     -1.233022
O       9.59835      7.62432      2.70532         0.195919      1.183485      0.248887
O       9.62469      7.73607     15.75090         0.117895     -0.084516      0.420194
O       9.65202      7.72688      6.85069         0.070074     -0.513069      0.403687
O       9.64110      7.64643     11.23614        -0.086763      1.107011      0.174304
O       9.67309     11.60587      2.83966        -0.413360      0.274557     -0.388092
O       9.51992     11.52504     15.66759         0.274219      0.849302      0.051795
O       9.68302     11.64143      6.87919        -0.128069     -1.182369      0.096955
O       9.56119     11.46275     11.56762         0.501456      0.062613     -0.881016
