  # total energy = -7880.14926654 
CRSYTAL
PRIMVEC
    15.464    0.0000000000000000    0.0000000000000000
     0.0000000000000000   15.464    0.0000000000000000
     0.0000000000000000    0.0000000000000000   17.350608
PRESSURE
1.09265 0.587428 2.01429 0.278024 -0.089583 0.044769
PRIMCOORD
320 1
Pb       3.87303      3.52536      4.25403        -0.570833      1.656976      0.636427
Pb       3.82720      3.71266     17.20652        -0.521120      1.381871      0.191300
Pb       4.00367     15.37381      4.28031        -0.907920      0.039068      0.593755
Pb       3.84675      0.07279      0.01886        -0.188858     -0.730223     -0.212554
Pb      15.20906      3.83250      4.21450         1.127137      0.074882      0.404605
Pb      15.36551      3.83484     17.33117        -0.010878      0.137319      0.001413
Pb      15.29896     15.43102      4.19930         0.720486      0.268630      0.144671
Pb      15.32209      0.03124     17.31961         0.236098     -0.239989      0.185310
Pb       3.88793      3.78215      8.58849        -0.122421     -0.100193      0.443800
Pb       3.95779      0.01890      8.54290        -1.096358      0.430507      1.385809
Pb       0.01294      4.00971      8.55635        -0.118771     -0.349358      0.253892
Pb       0.09001      0.10751      8.70491         0.118618      0.117346     -0.184093
Pb       3.85098      3.94979     13.01794         0.368403      0.088818      0.443349
Pb       3.79058      0.16624     12.91082         0.467818     -0.786053      0.175226
Pb      15.27145      3.83972     12.97859        -0.021314      0.347160      0.588958
Pb      15.39827     15.33936     12.94040        -0.103249      0.145694      0.903956
Pb       4.05131      7.61982      4.22211        -0.748628     -0.209226      0.656792
Pb       3.98144      7.82625     17.31714        -0.301620     -0.585207      0.248830
Pb       0.08837      7.76388      4.30491         0.021877      0.101197      0.006341
Pb       0.05714      7.78389      0.00881        -0.703452     -0.357820      0.690372
Pb       3.66138      7.52477      8.63497         0.438018      0.482579      0.093947
Pb      15.28902      7.81340      8.69809         0.447366     -0.002062     -0.891499
Pb       3.88531      7.80927     12.92018        -0.070091     -0.973105      0.599334
Pb      15.37032      7.54088     12.92531         0.673584     -0.054523      0.681195
Pb       4.07419     11.47631      4.36359        -1.177281      0.235037      0.375002
Pb       3.97709     11.57752     17.29904        -0.804847      0.270863     -0.314615
Pb      15.45988     11.66024      4.30969         0.206127     -0.383271     -0.384396
Pb      15.38360     11.61176      0.02893         0.787844     -0.353920      0.350395
Pb       4.01274     11.47056      8.85558        -0.501124      0.237423     -0.500883
Pb       0.10041     11.71495      8.59433         0.064868     -0.155421      0.118719
Pb       3.85556     11.62001     12.91708        -0.501427      0.555418      0.095014
Pb      15.43712     11.23124     13.04926        -0.175756      1.110770      0.635936
Pb       7.77738      3.75179      4.29492        -0.363564      0.779372     -0.242494
Pb       7.66467      3.72277     17.26014        -0.100676      0.617519     -0.346007
Pb       7.73052     15.43095      4.27604         0.161421     -0.298451      0.499642
Pb       7.68583      0.03433     17.27723         0.176323     -0.461641      0.094373
Pb       7.68131      3.80372      8.47839        -0.088569      0.519952      0.953500
Pb       7.81678     15.27497      8.62659        -0.424270      0.972348      0.570200
Pb       7.75340      4.00644     12.99882        -0.515358     -0.552764      0.513884
Pb       7.59986      0.09400     12.92891        -0.150397     -0.294591      0.418748
Pb       7.81471      7.68411      4.25370         0.062147     -0.073557     -0.126397
Pb       7.76914      7.86467     17.33007        -0.215297     -0.280724     -0.019022
Pb       7.60182      7.66685      8.61290         0.239339     -0.485660     -0.025748
Pb       7.89143      7.80966     12.98459        -0.873781     -0.455798      0.134930
Pb       7.75945     11.58259      4.41966         0.196751     -0.167906     -0.099285
Pb       7.71795     11.70504     17.25301         0.042718     -0.221142     -0.048480
Pb       7.95877     11.49423      8.61234        -0.913292      0.139141      0.775745
Pb       7.60397     11.59148     12.82093         0.700579      0.209789      0.828710
Pb      11.48538      3.83872      4.33312         0.587907      0.413532      0.144354
Pb      11.49687      3.72529     17.20215         0.542095      0.741333      0.440406
Pb      11.55851      0.04118      4.35596        -0.027489     -0.116947      0.175135
Pb      11.57639     15.28844     17.22652        -0.113557      0.388661      0.006713
Pb      11.49704      3.85164      8.67464         0.219027      0.138231     -0.059589
Pb      11.64498      0.01235      8.58613         0.208677      0.129335      0.497201
Pb      11.46733      3.88820     12.86634         0.422411     -0.059432      0.175188
Pb      11.41721      0.07436     12.95247         0.237217     -0.009929     -0.106128
Pb      11.47642      7.68833      4.20571         0.379147      0.191316      0.344459
Pb      11.43908      7.61192      0.04717         0.774497      0.131758     -0.010921
Pb      11.41604      7.70883      8.56175         0.538196      0.089833      0.218226
Pb      11.60900      7.51187     12.93153        -0.389630      0.149986      0.454130
Pb      11.59287     11.72956      4.33420         0.210649     -0.364762      0.365869
Pb      11.61967     11.65214     17.33951        -0.071337     -0.691666     -0.130944
Pb      11.77373     11.74897      8.71947        -0.072624     -0.696455     -0.340572
Pb      11.52646     11.49062     12.90697         0.018482      0.262304      0.501181
Ti       1.89172      1.85516      2.26856        -1.150390      1.397402      0.792603
Ti       1.80801      1.85105     15.29901        -0.497041      0.911445      1.632810
Ti       1.96964     13.44535      2.39259        -0.389146      0.141395     -0.597152
Ti       1.92069     13.57776     15.37824        -0.433635     -1.763660      0.350681
Ti      13.38753      1.90159      2.32507         1.924015      0.455076     -2.056050
Ti      13.41970      1.82539     15.36153         0.414834      1.522030     -0.568832
Ti      13.50464     13.52811      2.30956         0.397807     -0.305585      0.612328
Ti      13.56890     13.36598     15.27068        -0.469596      0.588481      2.147763
Ti       1.86891      1.99594      6.63998         0.570887     -0.785513      0.666893
Ti       2.04583     13.60035      6.69915        -0.834079     -0.786414     -0.021906
Ti      13.45360      1.97539      6.67013         0.707992      0.565902      0.309704
Ti      13.61934     13.56250      6.67600        -0.133976      0.255762     -1.114848
Ti       1.86917      1.95560     11.16006         0.454115      0.261772     -1.568285
Ti       1.75197     13.54348     11.08519         1.704747     -0.654243     -0.577886
Ti      13.51007      1.92495     11.09346        -0.886523      0.303025      0.526034
Ti      13.48426     13.53394     11.06198         0.142763     -0.707991      0.300581
Ti       1.90695      5.74115      2.39276         0.242094     -0.406449     -0.579457
Ti       1.88238      5.80665     15.41831         0.423728     -0.350931     -0.727016
Ti      13.48944      5.79199      2.36817         0.209311      0.414756     -0.108511
Ti      13.47392      5.80218     15.45919        -0.023063     -0.343898      0.857026
Ti       1.87581      5.78340      6.60791         0.451411      0.459440     -1.796694
Ti      13.44974      5.85967      6.65701         0.068479     -0.510337      0.121409
Ti       2.04004      5.66426     11.03391        -1.849377      1.708507     -0.213771
Ti      13.53718      5.82205     10.87984        -1.060255     -1.226741      1.346285
Ti       2.03159      9.60124      2.34626        -1.643788      0.532361      0.378162
Ti       1.92582      9.58513     15.43309        -0.370818      1.606883      1.049584
Ti      13.44763      9.63933      2.50886         1.658795      0.137252     -1.141236
Ti      13.48310      9.59554     15.45873         0.016715     -0.850214     -0.148355
Ti       1.95225      9.69136      6.75286        -0.064646     -0.228455      0.409825
Ti      13.51069      9.71810      6.58973        -0.365581     -0.785617     -0.150932
Ti       1.89317      9.60433     11.08064        -0.296189     -0.127056     -0.098050
Ti      13.43524      9.58136     11.04506        -0.083307      0.644863     -0.763721
Ti       5.82463      1.88014      2.37713         0.092135      1.220716     -1.342921
Ti       5.64366      1.90489     15.34331         1.744522      0.700489     -1.948054
Ti       5.80025     13.49030      2.34587         0.477278      0.112219     -1.791492
Ti       5.73864     13.62378     15.35068         0.028579     -0.676588      0.732640
Ti       5.82086      1.88762      6.68863        -1.076359     -0.181642      1.094720
Ti       5.84550     13.48514      6.83683        -0.710828      0.071337     -0.383135
Ti       5.78316      1.99377     11.02910        -1.105241      0.512475     -1.156859
Ti       5.79227     13.57256     11.01140        -0.640467      0.382473     -0.038109
Ti       5.76124      5.73149      2.16962         0.892338     -0.089118      2.158764
Ti       5.76923      5.84711     15.34249        -0.441704     -0.428897      0.722162
Ti       5.71153      5.73950      6.57996         0.880144      0.695783      0.899227
Ti       5.84772      5.75764     11.01602        -0.797406      0.671341      2.808085
Ti       5.86946      9.66384      2.38840         0.291309     -0.819658     -1.164639
Ti       5.81756      9.66987     15.29785         0.812716      0.182245      0.288309
Ti       5.82443      9.63813      6.85630        -0.642917     -0.482957     -0.391720
Ti       5.79779      9.62785     11.02620         0.036676     -0.876988     -1.466229
Ti       9.63400      1.92132      2.30441         0.527747     -0.641243      0.772104
Ti       9.58968      1.89870     15.30055         0.111766     -0.230150      0.781370
Ti       9.72784     13.54171      2.39843        -1.088544      0.638354     -0.938420
Ti       9.64843     13.44652     15.32090         0.004858      0.849906      1.528773
Ti       9.63713      1.89911      6.68705        -0.041991     -0.108269     -0.511827
Ti       9.69858     13.47977      6.77097         0.449650      0.251797     -1.469622
Ti       9.50287      1.90627     10.93159         0.787110      0.502355     -0.853587
Ti       9.67889     13.49863     10.89106        -0.063679     -0.162915      1.106286
Ti       9.66540      5.67994      2.25976        -0.329883      1.744566     -0.488146
Ti       9.55775      5.79869     15.36580         0.667961     -0.615801     -0.479783
Ti       9.64571      5.76745      6.58937        -1.091360      0.254911      2.740649
Ti       9.54364      5.76521     10.89924         0.709372     -0.116201     -1.095267
Ti       9.71543      9.77491      2.31201        -0.569128     -1.306568      0.724825
Ti       9.67933      9.61949     15.27753         0.333876      0.692404      1.126139
Ti       9.71942      9.63744      6.64157        -0.189683      0.049667     -0.529263
Ti       9.66143      9.62082     10.94544        -0.321935      0.157892      1.604086
O       1.74756      1.84831      0.53048         0.692924      0.119695     -0.688042
O       1.87997      1.79734     13.59223         0.050739      0.289798     -1.624076
O       1.89921     13.42735      0.64624         0.564012      0.405644     -0.112983
O       1.78854     13.49269     13.65324         0.318245      0.262204     -1.019317
O      13.52041      1.94145      0.49090        -0.447394     -0.330710      0.798771
O      13.41855      2.10073     13.60744         0.007337     -0.679284     -0.541525
O      13.59308     13.65624      0.57049        -0.878411     -0.611027     -0.480626
O      13.57970     13.30336     13.60052        -0.081628      0.040177     -2.235478
O       1.92823      1.93108      4.93680        -0.246894      0.020604     -1.099975
O       2.02975     13.45610      4.96335         0.000895      0.473106     -0.705809
O      13.44104      1.96580      4.91856         0.010338     -0.116977     -0.717518
O      13.49830     13.58253      4.87949         0.259092      0.228336      0.719041
O       1.87797      1.93261      9.40123         0.009275      0.195913     -0.136365
O       1.73503     13.56131      9.31614        -0.202050     -0.125948      0.398677
O      13.38188      1.89155      9.40567         0.303284     -0.050770     -1.762156
O      13.56624     13.60332      9.30356         0.004321     -0.348407     -0.777896
O       1.96232      5.66351      0.61484        -0.298411      0.220558      0.471114
O       1.90733      5.88167     13.62266        -0.239817     -0.001862      0.694496
O      13.58863      5.73566      0.63008        -0.278054      0.160127     -0.234747
O      13.43362      5.76716     13.71594        -0.037064      0.343665     -1.207355
O       2.03596      5.79598      4.80375        -0.221615      0.035235      1.324504
O      13.34315      5.61822      4.95572         0.353709      0.289105     -0.942823
O       1.91136      5.89752      9.27320         0.066709     -0.908654     -0.250603
O      13.36399      5.87919      9.16602         0.639404      0.106339     -1.187202
O       1.96858      9.65701      0.62147         0.161273      0.050636     -0.874069
O       1.85736      9.58643     13.70997         0.208814     -0.345787     -1.590732
O      13.55585      9.78348      0.76924        -0.165956     -0.407804     -0.627422
O      13.51778      9.52455     13.69406        -0.194623      0.302126     -0.607910
O       2.06133      9.53237      5.06688        -0.138105      0.564143     -1.530816
O      13.38784      9.64715      4.84184         0.331711      0.333862     -0.160037
O       1.90621      9.78883      9.37211        -0.146543     -0.470070     -0.955296
O      13.36576      9.49175      9.27789         0.511739      0.236370      0.379384
O       5.87717      1.85332      0.59011        -0.475033      0.269404      0.032000
O       5.83306      1.93601     13.54811        -0.473725     -0.476606      0.333842
O       5.79040     13.61091      0.54410        -0.285857     -0.190344      1.103493
O       5.78172     13.71666     13.64925         0.107226     -0.276327     -2.163702
O       5.78929      1.75579      4.97024         0.085849      0.407764     -2.079732
O       5.86856     13.52160      5.07730        -0.326613     -0.072031     -1.337706
O       5.75295      2.11776      9.24494         0.018592     -0.503696     -0.125771
O       5.85598     13.54117      9.27537         0.084109      0.107454     -0.841488
O       5.76241      5.76645      0.44908         0.243929     -0.136199     -0.929762
O       5.82292      5.81686     13.63180        -0.019258     -0.008953     -1.654698
O       5.71584      5.78248      4.86274         0.282905     -0.219719     -0.656558
O       5.75814      5.72667      9.35980         0.014341      0.064595     -2.908738
O       5.94849      9.67610      0.60396        -0.143561     -0.168239      0.215537
O       5.96370      9.51556     13.58094        -0.880091      0.630620     -1.383419
O       5.78484      9.67049      5.09628         0.039190      0.235354     -0.926634
O       5.84327      9.63787      9.20307        -0.407011      0.415293      0.698695
O       9.72189      1.87689      0.60534        -0.381714     -0.022187     -1.658305
O       9.56662      1.86390     13.58087         0.067684     -0.171577     -1.526509
O       9.72827     13.60619      0.63123         0.218735     -0.096151     -0.205412
O       9.65433     13.49070     13.65460        -0.095671      0.078664     -2.700787
O       9.72638      1.94489      4.90267        -0.276245     -0.047475      0.047409
O       9.67668     13.45504      4.98348        -0.184690      0.105704     -0.291678
O       9.40630      1.87667      9.15929         0.610679      0.399350      0.106382
O       9.67389     13.43125      9.14495        -0.058935      0.274780     -1.036738
O       9.71658      5.76161      0.50256        -0.319589     -0.087180     -0.260822
O       9.65478      5.86935     13.55831        -0.211634     -0.111638      0.456248
O       9.60346      5.60426      4.90895        -0.043277      0.249095     -2.347556
O       9.53155      5.81219      9.10573         0.059040     -0.237733      0.684674
O       9.56008      9.77222      0.59659         0.026604     -0.274962     -1.225296
O       9.77229      9.66420     13.54762        -0.400747     -0.325830     -0.897551
O       9.63696      9.68547      4.86893         0.128036      0.242350      0.270478
O       9.68619      9.80761      9.26891        -0.071055     -0.459985     -1.997012
O       3.85098      1.91689      2.66917         0.489121     -0.339160     -0.365854
O       3.81217      1.86344     15.72048        -1.301019     -0.092025      0.188212
O       3.89768     13.51685      2.80437         0.597633      0.479795     -0.114541
O       3.86417     13.59206     15.70210        -0.800457     -0.241385      0.571938
O      15.31442      1.92653      2.67055         0.908043     -0.015011      0.463230
O      15.40005      1.82053     15.74470        -0.102873      0.335627     -0.374206
O      15.41398     13.50604      2.60374         0.593336      0.062298      1.038316
O      15.37218     13.49977     15.79699         0.974754      0.181723      0.004954
O       3.86359      1.86809      6.90388        -0.415511      0.651977      0.800732
O       3.86044     13.58673      7.15798         0.474093     -0.239090      0.094103
O      15.45385      2.14455      7.14655        -0.524763     -0.855711     -0.327122
O       0.02693     13.60195      7.00426        -0.719933     -0.154633      0.312099
O       3.89868      2.06711     11.39580        -1.203138     -0.502345      0.646759
O       3.86322     13.52334     11.27610        -0.562661      0.119807      0.723840
O      15.44860      1.91743     11.37957        -1.158588      0.119456      0.596057
O      15.37647     13.41737     11.49548         0.249407      0.207950     -0.131248
O       3.97059      5.80451      2.55899        -0.819614      0.119755      0.371614
O       3.86180      5.76785     15.63349        -0.366938      0.168481      0.698713
O      15.44532      5.87158      2.85899        -0.070547     -0.513252     -0.345583
O      15.46107      5.92016     15.79125        -0.067807     -0.107420     -0.039922
O       3.87122      5.79616      7.09193        -0.917822     -0.022114     -0.064434
O      15.43965      5.84217      6.93016        -0.529356     -0.589824      0.435663
O       3.80580      5.84081     11.48644         1.164517     -0.418801     -0.167867
O      15.36957      5.66846     11.43184        -0.044131      0.492620     -0.502563
O       3.86400      9.54745      2.65428         1.689418      0.411879      0.492745
O       3.94625      9.74213     15.75882        -0.505847     -0.811516     -0.042523
O      15.45692      9.83941      2.77477         0.586675     -0.855622      0.618982
O      15.42602      9.65075     15.76631         0.874205     -0.613466      0.290793
O       3.82602      9.69897      7.16497         0.506307      0.063950      0.465485
O      15.39702      9.66663      7.01589         0.035457     -0.030807      0.463376
O       3.86615      9.63656     11.46947        -0.396168      0.258991     -0.197686
O      15.36680      9.62457     11.41742         0.366747     -0.512117     -0.285827
O       7.76869      1.95933      2.63911        -0.556478      0.215180      0.631277
O       7.68206      1.85244     15.71071         0.275566      0.155043      0.312847
O       7.70075     13.47482      2.62529        -0.220973     -0.047956      0.889395
O       7.62830     13.60934     15.75817         1.437862     -0.011570      0.100807
O       7.67515      1.94883      6.89621         1.057499     -0.101812      0.403756
O       7.72295     13.64073      7.01463         0.927582     -0.743409      0.439082
O       7.58004      2.08112     11.32978         2.732981     -0.757897      0.594690
O       7.77881     13.49290     11.41348        -0.503929      0.457299     -0.198110
O       7.79336      5.70309      2.58747        -0.305235      0.043533      0.445341
O       7.66619      5.72498     15.71538         0.859262     -0.069866      0.313046
O       7.65000      5.83456      7.05547         0.121546     -0.582232     -0.327086
O       7.67611      5.71924     11.49309         1.082314      0.751880     -0.428578
O       7.74888      9.62197      2.78215         0.053276      0.990137      0.299687
O       7.76681      9.69478     15.53125         0.459173     -0.272488      1.038074
O       7.76108      9.85528      7.01893        -0.222185     -0.821855      0.206512
O       7.64159      9.71278     11.31788         1.205224     -0.139909      0.374091
O      11.60106      1.85222      2.68095        -1.351770     -0.038929      0.504692
O      11.48590      1.96488     15.67050         0.717082     -0.169880      0.112533
O      11.56667     13.68562      2.84739         0.292327     -0.382808     -0.442539
O      11.65755     13.37851     15.59151        -0.609550      0.262516      0.901471
O      11.54150      1.88856      7.13199        -0.048961      0.264685     -0.037516
O      11.65094     13.52141      7.06728        -0.059032      0.363429      0.345200
O      11.52493      1.90903     11.34944        -0.855070     -0.095257      0.521479
O      11.60855     13.47922     11.25251        -1.596001      0.049580      0.549781
O      11.56466      5.83098      2.80280        -0.183140     -0.291334     -0.327039
O      11.54188      5.73551     15.86592        -0.120807      0.379686     -0.408555
O      11.48438      5.91774      6.94771         0.135726     -0.336671      0.491946
O      11.50671      5.70634     11.20075         0.270950      0.696384      0.663616
O      11.59459      9.68423      2.66597        -1.028576     -0.067003      0.500143
O      11.58541      9.60703     15.75680        -0.812986      0.390396      0.350904
O      11.59379      9.67703      7.10394        -0.475237     -0.018281     -0.178438
O      11.50229      9.52141     11.36201         0.221432      0.097317      0.322365
O       1.87796      3.84181      2.74331         0.292622     -0.392012      0.070224
O       1.82858      3.85244     15.67379         0.371945     -0.417166      0.169605
O       1.93725      0.09037      2.66356        -0.058557     -1.936350      0.579897
O       1.86561     15.43125     15.66538         0.194394      0.328527      0.627086
O      13.46692      3.90556      2.69830        -0.293782     -1.140894      0.166628
O      13.56516      3.89063     15.74222        -0.088629     -0.451724      0.415149
O      13.53242     15.45560      2.69120        -0.361486      0.042242      0.293154
O      13.43120     15.45067     15.54068        -0.031376     -0.781505      0.321153
O       1.93764      3.90210      7.10905         0.081203     -0.032455     -0.139295
O       1.91814      0.03767      7.13739        -0.344988      0.376369     -0.102583
O      13.38045      3.86526      7.09411         0.016898      0.351376      0.471183
O      13.55629      0.12781      7.04038        -0.050603     -1.256094      0.299857
O       1.87336      3.86574     11.53205         0.140600     -0.443590      0.071242
O       1.80008      0.02150     11.43565         0.356456     -0.844522      0.232054
O      13.40110      3.89240     11.37157         0.442764     -0.267949      0.074805
O      13.40658     15.37557     11.47891         0.594348      0.745624      0.327469
O       1.98974      7.70850      2.74237        -0.537066      0.072909     -0.009348
O       2.02054      7.72431     16.07844        -0.054598      0.209207     -1.282811
O      13.50818      7.67880      2.80884        -0.142646      0.758324      0.131712
O      13.44760      7.68809     15.95693         0.094290      0.514765     -0.191618
O       1.82315      7.67816      7.07357         0.477362      0.490964      0.566029
O      13.44173      7.71756      6.93857         0.355077      0.724378      0.538348
O       1.82402      7.59164     11.34450         0.165371      1.749320      0.447328
O      13.44040      7.65279     11.52692         0.407682     -0.001447     -0.810646
O       2.03423     11.60739      2.76844        -0.036912     -0.342904      0.374726
O       1.94056     11.55784     15.72622         0.095003      0.022419      0.383753
O      13.42714     11.64189      2.79057        -0.073807      0.731674      0.103540
O      13.57871     11.45737     15.94094        -0.635064      1.163104     -0.768139
O       1.88207     11.65913      7.14373         0.174427     -0.345402      0.010578
O      13.48164     11.61938      6.90394         0.256780      0.541964      0.656543
O       1.90348     11.55116     11.45027         0.030696      0.027700      0.385720
O      13.34273     11.49150     11.48119         0.665294     -0.262224     -0.679188
O       5.84339      3.84125      2.80168        -0.093119     -0.522924     -0.472904
O       5.64910      3.78460     15.58358         0.635098      0.383657      1.041182
O       5.84366      0.05729      2.69952        -0.095267     -1.592584      0.471890
O       5.69273      0.05815     15.71622         0.280192     -0.519691      0.726369
O       5.72085      3.87549      7.14464         0.226235     -0.667256     -0.977241
O       5.72847     15.46182      7.20165         1.131276      0.194963     -0.449296
O       5.82757      3.94921     11.46309        -0.788662     -1.017005      0.452027
O       5.75038      0.05957     11.40453         0.366127     -0.382533     -0.128774
O       5.97497      7.73138      2.85468        -0.714407     -0.363943     -1.058311
O       5.88847      7.73086     15.64777        -0.366207      0.709929      0.801733
O       5.75710      7.67026      7.11231         0.141981      0.863120     -0.052015
O       5.80943      7.71456     11.35907        -0.066547      0.721882      0.227867
O       5.71552     11.55261      2.67294         0.426079      0.475951      0.427607
O       5.83255     11.61032     15.68694        -0.098892      0.120566      0.113434
O       5.76462     11.64334      7.14849        -0.061752     -0.616198      0.310331
O       5.72264     11.65095     11.38758         0.141876     -0.762921      0.214038
O       9.77521      3.85840      2.61293        -0.314095     -1.246624      0.448159
O       9.61731      3.87839     15.60773        -0.310422     -0.822141      0.477177
O       9.51658      0.00736      2.80267         0.775137      0.009226     -0.000424
O       9.80385     15.41515     15.70414        -0.704926      0.120386      0.001966
O       9.67149      3.85156      6.99134        -0.057062     -0.345107      0.219497
O       9.67563     15.43638      7.00829        -0.103096      0.247268      0.389697
O       9.62807      3.88461     11.30497        -0.381012     -1.040833      0.153468
O       9.60200     15.46334     11.11410        -0.090872     -0.171110      0.954441
O       9.68622      7.77603      2.63436        -0.196224     -0.499086      0.209124
O       9.64933      7.67638     15.77725        -0.286687      0.929852     -0.148180
O       9.47030      7.77123      7.04912         0.614830      0.114778     -0.290690
O       9.53568      7.61974     11.25380         0.081114      1.582262      0.247292
O       9.76005     11.65781      2.63515        -0.307978     -0.049119      0.759865
O       9.67300     11.59856     15.76000        -0.207691     -0.580046      0.014584
O       9.67531     11.60159      7.03208         0.199615     -0.045210      0.228831
O       9.61422     11.59104     11.24932         0.299232     -0.254325      0.665740
