  # total energy = -7836.43149517 
CRSYTAL
PRIMVEC
    15.6080000000000005    0.0000000000000000    0.0000000000000000
     0.0000000000000000   15.6080000000000005    0.0000000000000000
     0.0000000000000000    0.0000000000000000   16.6239999999999988
PRESSURE
5.1758 5.5006 4.86252 -0.188634 -0.181926 -0.239839
PRIMCOORD
320 1
Pb       4.09520      3.95526      4.20755        -0.350471      0.307223      0.523635
Pb       4.01829      3.72173     16.61342         0.134861      1.266300     -0.203587
Pb       4.13534      0.02584      4.11756        -1.535303      0.500441      1.613313
Pb       3.92196      0.15146      0.21412         0.285737     -2.081505      0.411651
Pb       0.20764      3.86897      4.18189         0.290280      0.638087     -0.262480
Pb       0.03859      3.86552      0.07393        -0.129158      0.718849      0.692754
Pb      15.51653      0.05666      4.12497         0.254744     -0.696163      0.879777
Pb       0.01660      0.06270     16.61469         0.107462     -1.251077      1.081211
Pb       3.97708      3.78988      8.19890        -0.489043     -0.471589      1.201300
Pb       3.91750      0.02443      8.58447        -0.288948     -0.741524     -0.716690
Pb      15.58132      3.76192      8.32579        -0.114633      1.580647     -1.103933
Pb      15.37862     15.55658      8.17450         0.127773     -0.558562     -0.637107
Pb       3.73811      3.84375     12.31354         0.331324     -0.193382      0.508213
Pb       3.83563      0.24736     12.38813         0.016281     -0.538667      0.012380
Pb       0.15243      3.90488     12.41017         0.410697     -0.068786      0.651317
Pb      15.33159     15.39765     12.08397         0.994890      1.170366      1.406293
Pb       3.91516      8.09527      4.14266         0.248036     -1.579087      0.209146
Pb       3.99845      7.90372     16.59464        -1.318994     -0.518700      1.593011
Pb       0.09595      7.71906      4.14204         0.063697     -0.036954     -0.510978
Pb       0.03158      8.05376     16.50338         1.178626     -0.331622      1.752968
Pb       4.08366      7.89164      8.55396        -0.612901     -1.097524     -0.743800
Pb       0.03148      7.79923      8.45662        -1.095528     -0.773918      0.081769
Pb       3.83719      7.61724     12.64568         0.249758     -0.234775      0.832502
Pb      15.58930      7.65576     12.46676        -0.220156      0.082389      0.408619
Pb       3.76851     11.89349      4.46152        -1.003327      0.409064     -0.524192
Pb       3.61720     11.79312      0.19287         0.095527      0.473344     -0.103389
Pb       0.14005     11.62936      4.12071        -0.163325      0.547388      0.186787
Pb      15.46736     11.63119     16.45510         0.807164      0.337235      0.262015
Pb       3.82293     11.55236      8.23143        -0.405649      1.597944      3.267058
Pb      15.51082     11.62602      8.19178        -0.448604      0.697527      1.184213
Pb       4.29484     11.82684     12.43021        -2.257676     -0.653796      1.559494
Pb      15.39873     11.74759     12.48069        -0.036260     -0.091145     -0.088347
Pb       8.06595      3.93627      3.77747        -1.538989      0.677172      1.470016
Pb       7.84011      3.96387     16.45867        -0.641676     -0.120174      1.217036
Pb       8.17293     15.57844      4.10062        -1.036790      0.290367      0.926705
Pb       7.65260     15.37603     16.53548         0.863757      0.624657      1.871614
Pb       7.55187      4.01631      7.97567         0.918778     -1.507480      2.465420
Pb       7.71539      0.02518      8.33620         0.547764     -0.116744     -0.229172
Pb       7.85731      3.91564     12.40306        -0.098487     -0.543862      0.245095
Pb       8.09749      0.22275     12.59778        -1.664789     -1.537876     -0.332086
Pb       7.63107      7.84870      4.09418         0.171201     -0.526012     -0.566330
Pb       7.66222      7.87093      0.14559         0.291759     -0.019713      0.414860
Pb       7.70284      7.96921      8.26898         1.000857     -0.093265      0.401466
Pb       7.74070      8.00416     12.45880         0.008056     -0.932044      0.981916
Pb       7.71658     11.78974      4.04343         0.063066     -0.746626      0.520059
Pb       7.92648     12.05289     16.55979        -0.910694     -4.230902      2.234475
Pb       7.65017     11.50567      8.01736         0.552151      0.587356      2.187074
Pb       7.86976     11.48464     12.63355        -0.385236      0.849726     -0.109371
Pb      11.40614      3.83325      3.99482         0.995805     -0.052973      0.082555
Pb      11.77168      3.75166     16.54390        -0.169795      1.258250      0.875653
Pb      11.66517     15.46756      4.25665         0.463938     -0.695069      0.021903
Pb      11.91564      0.00040      0.18923         0.724633     -0.548218      0.409267
Pb      11.55164      4.03407      8.48898         2.065058     -2.037040     -0.429645
Pb      11.60856      0.15581      8.14445         0.500260      1.743823      2.592706
Pb      11.56884      3.58483     12.35600         1.015807      0.277019      1.876966
Pb      11.57068     15.34458     12.34996        -0.062339      1.148668     -0.555281
Pb      11.29146      7.60742      4.18580         1.332504      0.772097     -0.229015
Pb      11.89181      7.88869     16.56082        -0.939900     -1.078903      1.369375
Pb      11.85649      7.63038      8.64363         0.058968      0.263919     -0.742984
Pb      11.60436      7.73524     12.57206        -0.381633     -0.267982     -0.067686
Pb      11.45137     11.50960      3.90914         0.761987      1.356912      2.110491
Pb      11.84614     11.46504     16.32524        -0.279381      1.537408      1.680928
Pb      11.37009     11.68742      8.24307         0.934817     -0.238758      0.883667
Pb      11.76263     11.59418     12.38560        -1.500970      0.560076      0.839526
Ti       2.14132      1.92795      2.12067         0.262887     -1.178748      6.068269
Ti       1.85173      1.95372     14.80341         0.796332     -0.790993     -1.230197
Ti       1.91296     13.79917      2.26305        -0.299241     -0.991360      0.992543
Ti       1.91091     13.98182     14.22655         0.067529     -3.499821      4.185653
Ti      13.76494      2.18702      2.21132        -0.486156     -0.970897      0.771221
Ti      13.66502      1.94520     14.78866         0.110801     -0.226541     -2.332902
Ti      13.71079     13.71077      2.10413        -0.262026     -0.421316      1.154677
Ti      13.77347     13.76793     14.37416        -0.759289     -0.425858      2.329121
Ti       1.82727      2.00385      6.45947         2.395895     -0.960143     -2.814462
Ti       1.97947     13.67449      6.61218         0.527320      1.568102     -1.342276
Ti      13.49089      1.92481      5.99578         0.335797     -1.032197      0.697589
Ti      13.47100     13.47000      6.44704         0.406749      1.271731     -1.456217
Ti       1.80911      1.97538     10.21013         2.897831     -1.099204      0.478860
Ti       1.79816     13.61445     10.63496         1.769350      1.465709     -2.498589
Ti      13.83236      1.99476     10.55782        -3.030173     -1.040395     -0.036566
Ti      13.35601     13.66486     10.40568         1.601408      0.716292     -0.937728
Ti       2.06714      5.82726      2.07836        -1.207519      0.649716      0.569966
Ti       1.89182      5.87040     15.01977         2.027760     -0.490524      0.057896
Ti      13.56841      5.96841      2.36056         0.378634      0.647107      0.768420
Ti      13.67822      5.85518     14.91388         0.017611      0.633645      0.176893
Ti       2.19147      5.91088      6.72462         0.155082     -1.369079     -2.008851
Ti      13.73598      5.71677      6.28270         1.176564      0.210357     -0.246518
Ti       1.98461      5.96498     10.44570         0.378372     -3.281049     -1.993046
Ti      13.57033      5.84528     10.78527         0.261663     -0.295063     -2.011215
Ti       2.09786      9.76201      2.32631        -1.268161      0.500845      0.240071
Ti       2.19255     10.06092     14.67629        -0.535199      0.175496      0.775670
Ti      13.56594      9.94550      2.28022         1.801068     -0.775471      1.303512
Ti      13.55860      9.66692     14.57646         2.015460      0.331693      0.892894
Ti       1.80893      9.72046      6.67780         0.873131     -0.967812     -3.352391
Ti      13.53445      9.54529      6.33540         0.549177     -0.029251     -2.329399
Ti       1.72098      9.99807     10.90902         0.326164     -0.984071     -0.289814
Ti      13.37469      9.81519     10.61240         2.211294     -2.927132     -1.250980
Ti       6.17412      1.85513      2.29618        -1.311638      0.719384      1.462254
Ti       5.94201      1.71946     14.87532        -2.323799      0.700816     -1.263580
Ti       5.78745     13.65746      2.28570        -0.348569      0.762195     -0.662306
Ti       5.78616     13.46559     14.86927        -3.151851      1.521575     -2.109208
Ti       5.80856      1.92077      6.18300        -2.127258     -0.974251      1.339740
Ti       5.93269     13.60392      6.46685        -1.907357      1.044870     -0.345177
Ti       5.75218      1.89469     10.42141        -0.509835     -0.417861     -0.159037
Ti       5.81852     13.49931     10.77801        -0.269084      1.893179     -1.870521
Ti       5.88855      5.68658      2.11685         0.117031      2.143404      1.286318
Ti       5.84773      5.78623     14.74305        -2.105698      0.711767      0.755302
Ti       6.14745      5.90578      6.44936        -2.631389     -0.186149     -3.606083
Ti       6.07398      5.79588     10.61722        -2.070773     -1.133616     -0.694240
Ti       5.88686      9.97011      2.01498         0.934908     -1.798754     -0.270074
Ti       5.95028      9.72359     14.77662        -2.758026      1.078148     -0.299433
Ti       5.78795      9.81898      6.32340        -0.527421     -1.841836      1.271979
Ti       5.58838      9.50665     10.66591         2.819656      2.693801     -0.651379
Ti       9.87565      1.75371      1.84698        -0.916711     -0.059906      2.159974
Ti       9.72845      1.85810     14.77667        -0.094571      0.747328     -0.472515
Ti       9.75455     13.46345      2.08697         0.442331      0.693101      1.495754
Ti       9.81288     13.71837     14.70916        -1.146985     -1.470795     -0.830989
Ti       9.56853      2.12294      6.40705        -0.281549     -4.686369      0.935615
Ti       9.69517     13.61155      6.44967        -1.930362      1.474347     -0.899546
Ti       9.72831      1.84250     10.58503         0.737739     -0.752300     -2.803927
Ti       9.40755     13.41382     10.60926         0.958912      1.556199     -1.777983
Ti       9.78927      5.67129      1.95297        -1.208179      2.050817      2.794375
Ti       9.71449      5.91394     14.92136         0.425096     -0.349254     -1.115016
Ti      10.02656      5.83382      6.18310        -1.795868      0.042428     -0.834286
Ti       9.83837      5.76691     10.62454        -0.322003      1.292051      0.055698
Ti       9.79341      9.57465      2.22751        -1.967549     -0.825505      0.151441
Ti       9.76140      9.70465     14.53567        -1.466261     -0.968760     -1.077512
Ti       9.90839      9.58969      6.50318        -0.917948     -0.702527     -1.809360
Ti       9.63233      9.68475     10.52791         0.263081     -0.968878     -1.439106
O       1.93173      1.29085      0.59604        -1.457064      0.325533     -3.663053
O       1.80700      2.08896     13.03808         0.190619      0.533707      0.071847
O       1.90291     14.12581      0.50778         0.036568     -0.595464      0.584427
O       1.70556     14.02762     12.53173        -0.028552     -0.592174     -2.829443
O      13.39240      2.01103      0.39095         0.757146     -0.202641     -1.298655
O      13.81664      1.70843     12.97756        -0.552116      0.951604      0.965316
O      13.71248     13.33594      0.39436        -0.391064      0.706522     -2.145257
O      13.58200     13.64915     12.63508        -0.531828     -0.039870     -0.085214
O       2.06331      2.17184      4.56341        -0.312283     -0.048023      0.771744
O       1.70497     13.32622      4.69396         0.399510     -0.281438      1.057831
O      13.43070      1.71369      4.17229         0.117845      1.140148      0.491995
O      13.42647     13.53626      4.65388        -0.497701      0.306701      0.048435
O       1.96191      1.94885      8.42154        -1.078789      0.206717      1.396695
O       1.91489     13.37530      8.43404        -1.015015      0.265559      2.949704
O      13.86349      1.62906      8.86252        -0.280780      1.727639     -0.884883
O      13.31905     13.91496      8.65704        -0.027159     -1.288202     -0.451530
O       2.22141      5.82070      0.33042        -0.565911     -0.272241      1.256139
O       1.95367      5.36404     13.34476        -0.755004      0.113962     -3.247154
O      13.65888      6.12675      0.62256        -0.350257     -0.221898     -1.733018
O      13.83713      5.96906     13.18843        -0.380734      0.113164     -1.735057
O       2.26737      5.86353      4.94405        -0.717116      0.033920     -0.664189
O      13.82181      5.50620      4.49075        -0.418710      1.464930      1.306536
O       1.67660      5.88207      8.65148         1.110273     -0.458630      3.537537
O      13.34689      5.78339      8.92796         0.127208     -0.120764      1.139926
O       2.22809      9.73295      0.61187        -0.370275      0.685590     -2.274646
O       2.32302      9.91840     12.93158        -0.729332     -0.492318     -0.333898
O      13.35930      9.76167      0.44089         0.680757      0.386174     -0.548409
O      13.36764      9.69428     12.88696         0.339413     -0.460870     -2.524111
O       2.04371      9.82350      4.59218        -0.401924     -0.344669      1.564661
O      13.58278      9.70786      4.41041         0.082405      0.287008      2.328055
O       1.27655      9.91657      9.23241         1.603033     -0.426901     -2.254454
O      13.69052      9.40988      8.87545        -0.914751      1.522322      0.862598
O       6.29304      1.50568      0.61938        -0.832113      1.340296     -2.785659
O       5.55770      1.80187     13.16672         0.529937      0.011645     -0.534309
O       5.51334     13.79174      0.49613         1.235871     -0.523475      0.006433
O       5.54949     13.71006     12.98576         1.349348     -0.300502      0.441340
O       5.75421      2.06137      4.44298         0.539352      0.416500     -0.670570
O       5.78384     13.23861      4.73670         0.537036      0.587132     -0.905480
O       5.48475      1.92516      8.68318         1.690501     -0.370029     -0.102909
O       5.70390     13.70769      9.02985         0.752276     -0.703683     -1.157836
O       5.78852      5.89293      0.39601        -0.092757      0.025029     -1.102648
O       5.74215      6.14270     12.98669         0.580719     -0.927803     -1.492942
O       6.02784      5.61057      4.54111        -0.138749      0.487382      2.148068
O       6.26031      6.02979      8.82663        -0.592842     -0.290787      0.567814
O       5.98362      9.87473      0.21553         0.083275     -0.323338      1.591771
O       5.89576      9.56890     12.84801        -0.626245      0.325368     -1.125511
O       5.54959      9.99861      4.64526         0.561181     -0.226697     -1.375671
O       5.89610      9.36470      8.73015        -0.204494      0.641368      0.940976
O       9.65190      1.46005      0.14759         0.256294      0.774057     -0.349149
O       9.79961      1.79549     12.82271        -0.780318      0.331276      0.408438
O       9.58167     13.54145      0.33853         1.210450      0.231971     -1.464999
O       9.41002     13.51144     12.98444         0.721362      0.133760     -0.178484
O       9.52237      2.17400      4.67758         0.813966     -0.757451     -1.652327
O       9.68029     13.97090      4.67380         0.767234     -2.391730     -0.707764
O       9.70584      1.77778      8.69949        -0.436800      0.596336      0.976330
O       9.37857     13.52839      8.78157         0.524432     -0.822645      0.083758
O       9.60926      6.25273      0.39610         0.262545     -0.360163     -4.555799
O       9.98406      5.28989     13.25703        -1.975148      1.075542     -1.226544
O       9.64989      5.79040      4.27942         0.734099     -1.109626      2.090370
O      10.23175      5.65446      8.93814        -1.408089      0.863768     -1.904837
O       9.40214      9.88264      0.56956         1.397949     -0.888623     -2.436617
O       9.78121      9.49668     12.47994        -0.778008      0.806580      4.246292
O       9.83497      9.58628      4.55893         0.133786     -0.005819      0.717892
O       9.74155      9.64158      8.45542        -0.226188      0.578469      1.668622
O       4.03348      1.56421      2.20172        -1.146200      0.992485      0.377535
O       3.69157      1.61396     15.19891         0.878135      1.407271     -0.739072
O       3.95598     13.78418      2.73460         0.292318     -0.085429     -0.467723
O       3.57548     13.72678     14.70146         2.663329      1.060391      0.285752
O      15.53940      1.72359      2.48302         0.675148      0.907676     -0.577753
O      15.45829      1.88415     15.24242         0.534994      1.758969     -0.153061
O      15.53492     13.35914      2.49827         0.481444      1.484762     -0.171121
O      15.49912     13.20592     14.39925        -0.467707      1.879211      1.325990
O       3.93764      1.88078      6.64633        -0.376656     -0.151929     -0.564797
O       3.84354     13.74670      6.70014         0.990739     -1.300916     -0.418300
O      15.58360      1.79602      6.37348        -0.769847      0.946301      0.412297
O      15.24621     13.48843      6.77299         0.906071     -0.085303     -0.361749
O       3.72351      2.04235     10.65389        -0.048193     -0.377326      0.812552
O       3.68383     13.54933     10.87877         0.617881     -0.668721     -0.034438
O       0.03652      1.81374     10.84225         0.084294      0.759437     -0.095217
O      15.43049     13.44691     10.55750        -0.530470      0.884756      0.313079
O       3.77804      5.77759      2.54453         1.366734     -0.273420      0.167855
O       3.93816      5.57302     15.01821         0.472886      0.838515      0.262132
O       0.11108      5.81595      2.61152         0.605421      0.834255     -0.002666
O       0.03682      5.93549     15.36508        -1.380053     -0.842482     -0.332920
O       4.22297      5.81801      7.11812        -0.752939      1.441470     -0.915223
O      15.59174      5.89133      6.93242        -1.450789     -1.432948     -1.216181
O       3.92939      5.52729     10.71045        -0.749329      2.055302      0.078630
O      15.47819      5.79546     10.86918         1.193255     -0.374294      0.308794
O       4.14082      9.58545      2.44000        -1.317713      1.053975     -0.160831
O       3.95448      9.78583     15.17706        -2.205295      0.962863     -0.703581
O       0.08357      9.86103      2.26256        -0.941896      0.012804      0.705870
O       0.10429      9.69998     14.95797         0.318416      0.935811     -0.609137
O       3.76144      9.59402      6.99512         0.092873     -0.711068     -0.583339
O      15.47825      9.69152      6.73912         1.290453      0.334016     -0.261329
O       3.92613      9.96010     10.69667        -2.271333     -0.598239     -0.071013
O      15.49561      9.68902     11.31109         0.056537      0.157060     -0.045030
O       8.07473      1.93038      2.58852        -0.277964     -0.415986     -1.094158
O       7.72129      2.02592     14.81875         1.722770     -0.280518      0.155911
O       7.75707     13.58010      2.53226         0.517632      0.454266     -0.149897
O       7.58888     13.59274     15.11676         0.772770      0.453648     -2.096797
O       7.57545      2.11558      6.71532         2.366750     -0.239520     -0.121614
O       7.81104     13.37610      6.65591        -1.807150     -0.746143      0.050003
O       7.64319      1.93836     10.70600         1.575444     -0.518333      0.906579
O       7.68681     13.60311     11.07539        -1.438897      0.094144      0.036785
O       7.82516      5.81743      2.14545        -1.267262     -0.699665      0.871037
O       7.66237      6.22641     14.94977         1.622537     -1.213206      0.288336
O       8.10840      5.63258      6.52562        -1.801939     -0.470340      0.353908
O       8.00755      5.78404     10.83828        -2.986438     -0.535894      1.004609
O       7.76577      9.54846      2.44608        -1.260127      0.233907      0.943867
O       7.67106      9.57544     14.66575         4.073141     -0.176051      0.098437
O       7.66453      9.82311      6.51021         0.497799     -0.284002     -0.244628
O       7.87628      9.45546     10.64840        -2.091509      0.304247      0.030116
O      11.64920      2.27321      2.16365        -0.769056     -1.212344      0.513224
O      11.50352      2.08081     14.88229         2.245994     -0.981786      0.234019
O      11.58933     13.81313      2.34144         0.323176     -2.056264     -0.217138
O      11.58590     13.69465     14.71577         1.935694     -0.569920      0.304326
O      11.73651      1.55409      6.38279        -1.756568      1.421557     -0.417019
O      11.31562     14.20157      6.80905         2.900241     -3.705640     -1.554405
O      11.62302      1.70821     10.76981        -0.262442      0.077620      0.407088
O      11.57392     13.49165     10.83873        -0.570329     -0.236372      0.155731
O      11.53567      5.78450      2.46180         3.140483     -1.045913      0.234783
O      11.55681      5.82845     15.09951         2.715012      1.288405      0.829027
O      11.82363      5.82690      6.59330        -0.312065      0.085968      0.110856
O      11.52426      5.82429     11.19955         3.738088     -0.138994      0.551774
O      11.68536      9.87304      2.49631        -1.082847     -0.960375     -1.105598
O      11.63961      9.86036     14.72337        -0.906718     -0.936199      0.494515
O      11.68133      9.31669      6.72189         0.187920      0.598946     -0.156230
O      11.52951      9.46732     10.84061         2.652040      1.431021     -0.771051
O       1.87768      3.69440      2.18968         0.184011      1.891558     -0.299128
O       2.04146      3.69387     15.42255        -1.526242      0.238578      0.108722
O       1.92570     15.46226      3.14199         0.111166      0.837151     -1.874706
O       1.49181      0.00768     14.65363        -0.663586      1.530501      1.269017
O      13.91796      4.02383      2.52923        -0.914196     -1.975906     -0.929408
O      13.58940      4.06837     15.03337         0.566804     -2.680064      0.245595
O      13.58118      0.00490      2.13131        -0.263854     -0.785455      0.037778
O      13.70728      0.00466     15.03654        -0.789417     -1.464626     -0.580235
O       1.98612      3.96552      6.85314        -0.754162     -1.236748     -0.243588
O       1.93879     15.52483      6.67358        -1.093637      0.577979     -0.287926
O      13.51394      3.77230      6.51581         0.701618     -0.340931      0.410419
O      13.57730      0.01386      6.44122         1.007438     -0.478689      0.613585
O       1.97973      3.81578     10.68588        -2.059256      0.973223      0.412229
O       2.04162      0.00835     10.32102        -1.083015     -0.167276      0.758743
O      13.42846      3.84954     10.82028         0.814681     -0.237835      0.081074
O      13.55946      0.00361     10.70064        -0.503389     -1.595446      0.779180
O       2.00412      7.89247      2.52569        -0.062457     -1.284018      0.482061
O       2.09630      7.65770     15.06850        -0.024298      2.055177     -0.613215
O      13.28497      7.79346      2.80595         1.411687     -0.551428     -1.054722
O      13.83652      7.91977     15.13870        -1.625163     -1.268071     -0.595097
O       1.93003      7.68001      6.99343        -0.018787      3.600898     -0.267470
O      13.77758      7.71409      6.71473        -0.550332     -0.342612     -0.541968
O       1.95444      7.67461     10.85098         0.064409      1.811646      0.786169
O      13.74211      7.72291     10.85510        -1.197608      0.048453      1.105736
O       2.23318     11.90962      2.40254        -0.214035     -1.690672      0.108091
O       2.05049     12.01135     15.07670        -1.052068     -3.301985     -0.298438
O      13.51891     11.78354      2.44001        -0.461840     -1.545354      0.341422
O      13.65246     11.47254     14.84473        -0.301181      2.528837      0.248805
O       2.06641     11.51798      6.87939        -1.601391     -0.653973     -1.263689
O      13.29791     11.47247      6.65668        -0.429607      1.243238      0.695619
O       1.69215     11.83038     11.10004         0.567349     -1.700878     -0.070860
O      13.46654     11.63708     10.84524         0.064105      0.198522     -0.674300
O       5.64794      3.79239      2.30307         0.933148     -0.239876      0.085629
O       5.95079      3.97646     15.09254         0.148454     -1.712453     -0.443450
O       6.03691      0.11043      2.87406         0.459607     -2.477200     -1.009443
O       5.82095     15.50009     15.22638         0.174829      0.442892     -1.272920
O       5.62751      3.78068      6.63343         1.595129      1.757441     -0.108848
O       5.98869     15.42951      6.48076         0.248732      0.850409      0.278186
O       5.77748      3.78036     10.78240         1.326666      2.556001      0.584456
O       5.39069      0.02860     10.67914         1.139571      0.055397      0.999641
O       5.86280      7.65879      2.60959        -0.145522     -0.129575     -0.257654
O       5.57620      8.02250     15.12092         1.207422     -3.338172     -1.106493
O       6.01935      7.76145      6.49407        -0.029181     -0.327320      0.073768
O       5.57404      7.73616     10.98712         0.607980     -1.815804     -0.777799
O       5.85829     11.79287      2.24219         0.153531     -0.427394      0.796822
O       5.64819     11.65977     15.09901         0.561884      1.245653     -0.846760
O       5.48762     11.55970      6.87637         2.177987      1.226594     -0.958624
O       5.99372     11.60869     10.93245        -0.061916     -0.467684     -0.254530
O       9.65863      3.85004      2.01867         0.237131     -2.142989      0.095614
O       9.81034      3.87237     15.33112        -1.666198     -0.740936     -0.485194
O       9.85434     15.39452      2.46560        -0.835775      2.731464     -0.890405
O       9.50525     15.50182     14.79524         0.126066      1.299613     -0.118236
O      10.20188      3.70887      6.48540        -0.109120      4.180587      1.147774
O       9.24911     15.55569      6.61659         0.088223      0.846240      0.529082
O       9.92764      3.69137     10.83552        -1.454330      0.941967     -0.222140
O       9.64655     15.24578     10.83577         0.239363      3.064767      0.896679
O       9.79953      7.59187      2.47118        -0.224060      3.026811      0.134960
O       9.81617      7.88023     14.97396        -0.076542      0.594314     -0.615420
O       9.64896      7.54049      6.61885         0.479512      1.304786     -0.237330
O       9.81261      7.71402     10.70283        -0.163518     -1.017531      0.006684
O       9.42328     11.47374      2.50112         1.698473      2.793033      0.203019
O       9.40138     11.49909     14.78262         1.038625      0.921541      0.341289
O       9.92366     11.53327      6.57297        -0.232831      1.013614     -0.399552
O       9.55456     11.59421     10.99624         0.804622     -1.305277     -0.650239
