  # total energy = -7884.34108130 
CRSYTAL
PRIMVEC
    15.464    0.0000000000000000    0.0000000000000000
     0.0000000000000000   15.464    0.0000000000000000
     0.0000000000000000    0.0000000000000000   17.350608
PRESSURE
-0.858988 -0.604132 -3.03 0.496298 -0.017717 -0.009277
PRIMCOORD
320 1
Pb       3.87495      4.08111      4.38901        -0.093884     -0.287208      0.162538
Pb       3.86619      3.92130      0.05464         0.067378     -0.441854     -0.218763
Pb       3.70478     15.45752      4.31971         0.288171      0.033135     -0.282664
Pb       3.81526     15.36833     17.31529         0.093669      0.534204      0.380676
Pb       0.17816      3.87748      4.33522        -0.274828      0.055407      0.388855
Pb      15.44977      3.84614     17.32679         0.017524     -0.396156     -0.087952
Pb       0.04139     15.41507      4.30204        -0.354901      0.315856     -0.095017
Pb       0.03554     15.42511     17.29787        -0.282943      0.289852      0.004124
Pb       3.88726      3.86566      8.63804        -0.076686      0.018357     -0.150160
Pb       3.79444     15.41259      8.64190         0.098902      0.034947     -0.058821
Pb      15.44030      3.74546      8.69124         0.332514      0.691864     -0.093655
Pb      15.35834     15.36412      8.55328         0.218956      0.032063      0.300469
Pb       3.92286      3.69425     12.91033        -0.256393      0.243205      0.287123
Pb       3.92117     15.29504     12.97343         0.363774      0.467448      0.420047
Pb       0.05837      3.79267     12.91667         0.113102      0.443910      0.323007
Pb       0.03659      0.06586     12.99683         0.083009     -0.160455     -0.033455
Pb       3.69908      7.77273      4.33250         0.514148     -0.271990      0.261243
Pb       3.71324      7.61456      0.01097         0.501610      0.522241     -0.472361
Pb      15.41607      7.72427      4.28810         0.203628     -0.307944      0.177126
Pb      15.37397      7.67093     17.23902         0.148241     -0.104577      0.221960
Pb       3.96763      7.82084      8.64435        -0.218255     -0.124180      0.162787
Pb       0.07769      7.63170      8.68852        -0.382274      0.598540      0.153454
Pb       3.88008      7.70021     12.91327        -0.217413     -0.034076      0.195804
Pb       0.01508      7.83314     13.01508        -0.212592     -0.462988     -0.187270
Pb       3.67869     11.58389      4.23956         0.814818      0.336201      0.039295
Pb       3.81144     11.57415     17.30544         0.026612     -0.019576      0.090323
Pb      15.34939     11.49760      4.22426         0.392809      0.329870      0.501028
Pb       0.01125     11.55767     17.26121        -0.066132      0.322339     -0.319322
Pb       3.77745     11.62856      8.48625        -0.133216     -0.410393      0.556920
Pb      15.32378     11.48912      8.67287         0.276050     -0.001886      0.008191
Pb       3.84855     11.54000     12.96369         0.490851     -0.281341     -0.059939
Pb      15.35465     11.71154     12.95194        -0.013472     -0.601280      0.158667
Pb       7.64654      3.92781      4.28364         0.009911     -0.351823     -0.109193
Pb       7.71379      3.96204      0.00028         0.085665     -0.427562      0.082915
Pb       7.69630     15.40690      4.29214         0.150384      0.190586      0.192606
Pb       7.66885     15.44546      0.01911         0.032141      0.441664     -0.040332
Pb       7.72129      3.82015      8.69710         0.124105      0.028596     -0.608631
Pb       7.64502      0.08090      8.62668         0.200852     -0.083447     -0.107797
Pb       7.67627      3.70457     12.92904         0.322573      0.064354      0.046733
Pb       7.77842     15.34974     12.99322        -0.099662      0.312454      0.297735
Pb       7.61512      7.71817      4.28652        -0.012841      0.640073      0.472617
Pb       7.69031      7.58124     17.31845        -0.131962      0.424583     -0.316615
Pb       7.79827      7.68790      8.67072         0.365099      0.020828     -0.130474
Pb       7.59025      7.66357     12.92967         0.739174     -0.057824      0.082243
Pb       7.65497     11.57332      4.15334         0.206702     -0.158012      0.883591
Pb       7.68425     11.44060     17.32236        -0.274626      0.452127      0.154208
Pb       7.52378     11.63925      8.63285         0.805127     -0.430108     -0.223380
Pb       7.76042     11.58497     13.01176        -0.263842     -0.210315      0.153963
Pb      11.62207      3.85059      4.27578        -0.317805     -0.221273     -0.190981
Pb      11.65083      3.93141      0.00179        -0.214253      0.233520      0.514131
Pb      11.62959     15.40829      4.18104        -0.163750      0.291610      0.147845
Pb      11.60428      0.13820      0.03236         0.081656     -0.296317      0.383951
Pb      11.70330      3.77740      8.66998        -0.549392      0.420347     -0.398694
Pb      11.56752     15.43221      8.64714        -0.194796      0.022182     -0.318878
Pb      11.73590      3.72285     13.05041        -0.541713      0.717345     -0.099065
Pb      11.73439     15.35146     13.01795        -0.723421     -0.003561     -0.111269
Pb      11.63104      7.76464      4.27243        -0.360259     -0.321039      0.112816
Pb      11.66222      7.76337     17.21754        -0.391714     -0.257489      0.660023
Pb      11.70388      7.69869      8.67739        -0.467748     -0.229365     -0.394859
Pb      11.56219      7.84747     13.03787        -0.203362     -0.832121     -0.209452
Pb      11.53935     11.45723      4.19790        -0.114383      0.719976      0.524675
Pb      11.57064     11.49889     17.28822         0.078653      0.286230      0.197698
Pb      11.51656     11.44490      8.60407        -0.075965      0.321725     -0.061309
Pb      11.62059     11.62044     13.00837        -0.092769     -0.078437      0.110565
Ti       1.88754      2.01975      2.35942         0.044284     -0.458603     -0.315252
Ti       1.98186      1.90614     15.35748        -0.342102     -0.287928     -0.831863
Ti       1.88547     13.53691      2.28350         0.891916     -0.312138     -0.055901
Ti       1.89053     13.45164     15.31489        -0.353975      0.696070      0.324490
Ti      13.50906      1.98066      2.35460        -0.195495     -0.695541     -0.869435
Ti      13.50459      1.97210     15.32605         1.634163     -0.836228      0.075883
Ti      13.59728     13.51357      2.33290        -1.147240      0.841957     -1.066276
Ti      13.44226     13.50396     15.41734         1.132844     -0.073314     -0.601206
Ti       1.90150      1.91452      6.78594         0.233573      0.759570     -1.557214
Ti       1.88223     13.47853      6.64018        -0.225878      0.066769     -0.112156
Ti      13.50580      2.00208      6.66680        -0.066518     -0.495095     -0.649977
Ti      13.45373     13.54256      6.64658         0.444468     -0.202267      0.067835
Ti       1.93836      1.86076     10.98060        -0.089578      0.563438     -0.737626
Ti       1.92435     13.48008     11.10918        -0.130194      0.196831     -1.924090
Ti      13.49367      1.95025     10.97341         0.572463     -0.258014     -0.217492
Ti      13.51713     13.55167     10.93791        -0.559821     -0.492974     -0.396604
Ti       1.89613      5.88208      2.30159        -0.267361     -0.542511      0.830453
Ti       1.92068      5.72753     15.33356         0.236031      0.189744     -1.005750
Ti      13.51961      5.78767      2.39468        -0.232568     -0.361920     -1.323574
Ti      13.50837      5.79107     15.23397         0.508824      0.557587     -0.642392
Ti       1.96016      5.88013      6.82988         0.174668     -1.295730     -1.746996
Ti      13.55339      5.83796      6.58926         0.251189     -0.184341     -0.636533
Ti       1.91500      5.80674     11.01448        -0.255146     -0.484307     -1.554359
Ti      13.50940      5.82504     10.95927         0.029727     -0.172680      1.060845
Ti       1.94711      9.64260      2.30476         0.701762      0.558060     -0.229347
Ti       1.91802      9.56615     15.25625         0.582889      0.428308     -0.067113
Ti      13.60243      9.65234      2.27496        -0.543403     -0.379672     -0.925026
Ti      13.51175      9.59697     15.30717         0.087811      1.340597     -0.940105
Ti       1.90127      9.62083      6.57430        -0.780300      0.580016      0.397894
Ti      13.49759      9.66952      6.66539         0.260514     -0.116476      0.728568
Ti       1.93032      9.64010     11.03377        -0.567357      0.081000     -0.763309
Ti      13.47784      9.64610     11.01759         1.239998     -0.101458     -0.863526
Ti       5.66575      1.90580      2.31195         0.100243      0.145133     -0.962333
Ti       5.82379      2.00081     15.43851        -0.057552     -1.267663     -1.686860
Ti       5.81813     13.53555      2.29528        -1.502291     -0.157096     -0.138592
Ti       5.81095     13.55380     15.48053         0.015963      0.186033     -1.911747
Ti       5.70032      1.86758      6.55737         0.185593      1.237018      0.647208
Ti       5.78784     13.48379      6.59124        -0.054894      0.455262     -0.810099
Ti       5.76157      1.82121     10.96168         0.661097      1.076039     -0.724993
Ti       5.80359     13.51774     10.88078         0.131380     -0.583432      1.976105
Ti       5.72294      5.88987      2.33716        -0.197035     -0.433560     -0.363647
Ti       5.75026      5.77812     15.28106        -0.134764      0.544707      0.038201
Ti       5.85534      5.82563      6.74522        -0.620524     -0.632727     -1.713344
Ti       5.77028      5.76568     10.97581         0.454084     -0.274947     -0.433136
Ti       5.76716      9.68785      2.21402        -0.351165      0.721905      0.955822
Ti       5.72308      9.61952     15.36610        -0.769047      0.280902     -0.554273
Ti       5.74115      9.67180      6.60356         0.976887     -0.455788      0.347192
Ti       5.78962      9.68057     10.97492        -0.292072      0.379383     -0.338978
Ti       9.51739      1.97294      2.32006         1.139791     -0.045656     -0.403173
Ti       9.73830      1.97973     15.40655        -1.729446     -0.303882     -1.467718
Ti       9.61188     13.54507      2.36397         0.978339      0.333809      0.077617
Ti       9.66210     13.53724     15.48177        -0.657375      0.207701     -1.753837
Ti       9.59798      1.89587      6.65302         0.378945      0.789598     -1.785864
Ti       9.66050     13.53322      6.67378        -0.596601     -0.037580     -1.279432
Ti       9.75212      1.86763     11.02680        -1.047065     -0.316756     -0.360941
Ti       9.64480     13.40788     11.09192         0.502671      1.151225     -1.176054
Ti       9.56613      5.85314      2.36895         1.572779     -0.737725     -1.073156
Ti       9.66893      5.76974     15.33578        -0.420128      0.777487     -1.505301
Ti       9.73226      5.76837      6.68178        -0.424873      0.196057      0.617374
Ti       9.70626      5.69440     11.02123        -0.497330      1.209703     -0.885426
Ti       9.64627      9.61671      2.31944        -0.543324      0.323503     -0.521071
Ti       9.57851      9.62059     15.42351         0.013392      0.004286     -1.019044
Ti       9.56949      9.69198      6.68201         0.124162     -0.345384     -0.663487
Ti       9.65364      9.56915     11.01726        -0.978764      0.332409     -1.010965
O       1.74112      1.99319      0.60931         0.466705      0.164117     -0.248831
O       1.96568      1.91879     13.53757        -0.091992     -0.285190      0.587802
O       1.78300     13.53654      0.53026        -0.068925     -0.280940     -0.190215
O       1.87390     13.55547     13.51964         0.352008     -0.005121     -0.182210
O      13.56437      1.89249      0.55531        -0.085986      0.406690     -0.335608
O      13.55960      1.92120     13.53603        -0.457160     -0.138255      0.594465
O      13.67674     13.58393      0.54410        -0.230347     -0.494767      0.267955
O      13.45678     13.45701     13.60310        -0.211292      0.264783      0.303261
O       1.94380      1.98323      4.94188        -0.359470     -0.324169      0.777268
O       1.95219     13.60168      4.89208        -0.346142     -0.030902     -0.428123
O      13.52928      2.08580      4.92300         0.251767     -0.218068     -0.687614
O      13.54559     13.53090      4.90393         0.072371     -0.210863     -0.695084
O       1.92183      2.01575      9.16858        -0.041897     -0.494696      0.983390
O       1.92860     13.54623      9.31186         0.083911     -0.234907      0.497176
O      13.50489      2.00098      9.17659        -0.209064     -0.194564      0.560642
O      13.52894     13.51148      9.16742        -0.210594      0.207550      0.168116
O       1.94513      5.85847      0.53801        -0.174147     -0.070899     -0.468614
O       2.03990      5.73749     13.59517        -0.051660     -0.047870     -0.510520
O      13.64648      5.84641      0.55994        -0.334602     -0.148845      0.464114
O      13.41192      5.95782     13.47619         0.078390     -0.557084      0.881987
O       2.05781      5.86870      4.87518        -0.432639      0.054462      1.624070
O      13.56303      5.77669      4.74056        -0.218524      0.169947      0.980268
O       1.87500      5.79102      9.10801        -0.150031      0.286957      1.479076
O      13.49292      5.76838      9.18782         0.028526      0.209553      0.450028
O       2.00477      9.46274      0.57174        -0.339866      0.574873     -0.771348
O       1.95472      9.60730     13.49016         0.274530      0.117866     -0.078825
O      13.59490      9.64767      0.48500        -0.124049      0.059447      0.551406
O      13.45504      9.64809     13.50392        -0.110640     -0.190378      0.376264
O       1.89556      9.54138      4.79674        -0.102297      0.201002      0.217984
O      13.60166      9.69974      4.92359        -0.039542     -0.060793     -1.267182
O       1.78202      9.64293      9.26082         0.405238      0.037425      0.239758
O      13.67677      9.72268      9.19245        -0.833121     -0.366086      0.948878
O       5.68002      1.92213      0.49277         0.174105      0.282103      0.786322
O       5.77532      1.93889     13.52928        -0.067904      0.159811      1.513131
O       5.81509     13.53190      0.52098         0.091225     -0.006106     -0.467569
O       5.85001     13.72980     13.58854        -0.383479     -0.601934      1.510397
O       5.67383      1.86421      4.79692         0.396116      0.156899     -0.178555
O       5.76484     13.52513      4.81749         0.093396      0.111020      0.582707
O       5.76911      1.83116      9.15991         0.161170      0.203827      0.708311
O       5.80407     13.66141      9.17547        -0.071677     -0.481013     -1.522240
O       5.75572      5.85795      0.55662         0.197680     -0.077467      0.280885
O       5.64316      5.79641     13.50994         0.176529     -0.094472      0.091551
O       5.66150      5.88119      4.88290         0.630479     -0.218327      0.448826
O       5.84170      5.81089      9.19163        -0.119716     -0.064543      0.045111
O       5.76221      9.79556      0.48027        -0.098535     -0.250617     -0.891532
O       5.63891      9.78756     13.57765         0.032808     -0.514565      0.043388
O       5.78056      9.69004      4.88093         0.109323     -0.046109     -0.585170
O       5.68785      9.75226      9.21068         0.391488     -0.496001     -0.389056
O       9.63638      1.96452      0.52701         0.045074      0.052704     -0.108821
O       9.77739      2.16819     13.59436        -0.054539     -0.402839      1.017825
O       9.58040     13.59701      0.63662         0.034050     -0.157807     -1.085359
O       9.56529     13.49744     13.64410         0.405842     -0.173447      0.844228
O       9.60137      1.97747      4.79963        -0.203064     -0.034642      1.162232
O       9.58080     13.62357      4.89236         0.110329     -0.043165     -0.130767
O       9.76824      1.77507      9.24265        -0.131295      0.232213      0.068778
O       9.64337     13.50927      9.33132         0.153411      0.005769     -0.380855
O       9.59610      5.85581      0.56106        -0.272382      0.131534      0.609436
O       9.59800      5.80126     13.55113         0.428163     -0.210395      0.778685
O       9.81231      5.76576      4.92891        -0.428690     -0.095167     -0.368446
O       9.65860      5.92188      9.18553        -0.057746     -0.340910      0.896332
O       9.65300      9.59936      0.53684        -0.050375      0.048540      0.161226
O       9.64445      9.67954     13.66643         0.015613      0.034732     -0.225320
O       9.68395      9.64507      4.92193        -0.193732      0.168717     -0.702033
O       9.59176      9.58294      9.20488         0.284093      0.211242      0.705709
O       3.81917      1.97721      2.72320        -0.021897     -0.267327     -0.118754
O       3.85219      1.96511     15.76528        -0.080485      0.301296     -0.008162
O       3.80660     13.45928      2.61167         0.431951      0.305837      0.365963
O       3.74775     13.55984     15.88411         1.109977     -0.645481     -0.830084
O       0.00547      2.05168      2.74550         0.026818     -0.304669      0.429383
O      15.46090      1.87592     15.70137        -0.702805      0.060371     -0.058225
O       0.00836     13.40815      2.75027        -0.151467      0.403289      0.271742
O      15.43310     13.48351     15.65169        -0.027030      0.029265      0.309423
O       3.80305      2.06026      7.06243         0.123808     -1.101569      0.080745
O       3.80260     13.49085      6.97688         0.719296      0.402073      0.457598
O      15.41266      1.98712      7.13008         0.509450     -0.475160     -0.158833
O      15.39921     13.52494      7.06719         0.940830     -0.026219     -0.183170
O       3.85978      1.88320     11.29400        -0.325256     -0.053420      0.099824
O       3.93060     13.58947     11.32837        -0.956524     -0.175101      0.289433
O      15.44612      1.85370     11.37709        -0.079401      0.116591     -0.082563
O      15.37128     13.63453     11.37471         0.592616     -0.475839      0.305494
O       3.78627      5.89013      2.71466         0.877597      0.409198     -0.333372
O       3.86337      5.70975     15.80512         0.043133     -0.269148     -0.007777
O       0.01012      5.76254      2.63771         0.127395      0.188996      0.467294
O       0.01511      5.97193     15.55575        -0.336658     -0.540320      0.463033
O       3.87774      5.93885      7.08874        -0.424047     -0.089096      0.273901
O      15.41743      5.91802      6.95650         0.274218     -0.350632      0.091813
O       3.79246      5.76985     11.22365         0.817907      0.066755      0.420120
O      15.44953      5.78866     11.45537        -0.029892     -0.008792     -0.382697
O       3.87742      9.66071      2.74514        -0.049256      0.135187     -0.269342
O       3.79526      9.79149     15.77471         0.298430     -0.478699     -0.245462
O       0.04422      9.62727      2.61458        -1.460495      0.646132      0.328754
O      15.45355      9.59472     15.55616         0.170463      0.198153      0.496829
O       3.82338      9.63237      6.98009        -0.061953     -0.475905      0.218139
O       0.03679      9.66055      7.09261        -0.520536      0.243520     -0.469648
O       3.83470      9.68880     11.25547        -0.389777     -0.362276      0.756356
O      15.42883      9.64708     11.50518        -0.172409     -0.102392     -0.212912
O       7.64570      2.08714      2.51613        -0.096404     -0.450218      0.777321
O       7.72258      1.85421     15.63940         0.033083      0.512479      0.486521
O       7.67348     13.60847      2.73208         1.083465     -0.221857      0.029246
O       7.73985     13.68525     15.80935        -0.233536     -0.608450     -0.019594
O       7.66612      1.93819      7.02373        -0.161887      0.282925      0.030086
O       7.69697     13.42490      6.98112        -0.754692      0.503499      0.321349
O       7.83552      1.87577     11.42245        -0.774303      0.183787     -0.266761
O       7.72680     13.40485     11.37825        -0.693787      0.503278      0.134069
O       7.68698      5.88292      2.76316         0.031553     -0.391547     -0.045776
O       7.70785      5.86036     15.63244        -0.444685      0.004044      0.509493
O       7.71025      5.66933      7.00642         0.554215     -0.007565      0.194789
O       7.68183      5.84308     11.37170        -0.304856     -0.335456      0.058685
O       7.67757      9.69670      2.62275         1.200222      0.063077      0.187213
O       7.59285      9.60533     15.68779         1.084752      0.019493      0.412799
O       7.67363      9.81349      7.02787        -0.011179     -0.143958      0.196120
O       7.69144      9.72257     11.40146         0.013832     -0.094339      0.067458
O      11.60480      1.90405      2.58056        -0.265877      0.061983      0.573535
O      11.58974      2.06536     15.76323         0.845000     -0.039497      0.106812
O      11.64698     13.50593      2.63734        -0.463636      0.298124      0.345973
O      11.58267     13.49640     15.80397        -0.785101     -0.168442      0.209448
O      11.63872      1.95159      6.91069        -1.047831     -0.074567      0.826138
O      11.53687     13.66475      6.95557         0.185452     -0.456774      0.525340
O      11.64597      2.00571     11.42729        -0.264240     -0.070986      0.007872
O      11.60523     13.41651     11.38669         0.096450      0.216972      0.441604
O      11.60027      5.86797      2.67041        -0.393398     -0.018198      0.132023
O      11.64575      5.86082     15.78449        -0.427908     -0.433278     -0.263254
O      11.64283      5.81623      7.11570        -0.725951      0.126498     -0.293289
O      11.55343      5.85980     11.38544         0.440779     -0.313344     -0.200947
O      11.60673      9.64109      2.69634         0.149324     -0.130082     -0.163727
O      11.61029      9.73594     15.72688        -0.687924     -0.728433      0.137238
O      11.56700      9.64315      6.96730         0.203011      0.100654      0.664075
O      11.55856      9.64041     11.31273         0.207686     -0.108610      0.165982
O       1.96826      3.92992      2.74508         0.012255      0.160646     -0.245756
O       1.82081      3.80542     15.70195         0.227417      0.545843      0.401604
O       1.92829     15.42229      2.66750        -0.462708      0.795001      0.393098
O       1.97695     15.42693     15.81283        -0.548804      0.416452     -0.571347
O      13.41545      3.82958      2.61599         0.400568      1.236586      0.243930
O      13.60449      3.91200     15.58953        -0.282194     -0.391063      0.282998
O      13.58066      0.02482      2.70262         0.367856     -0.650324      0.399536
O      13.46491     15.43488     15.73198        -0.259210      0.696101     -0.207751
O       1.86444      3.90645      7.11098         0.087787      0.332480     -0.132550
O       1.99301     15.45789      7.04719        -0.641140     -0.000105      0.123079
O      13.51797      3.95145      7.09151         0.116256     -0.403415     -0.154953
O      13.51394     15.43551      6.95658         0.284568      0.714800      0.538507
O       1.89059      3.85861     11.45806         0.119831     -0.563126     -0.518759
O       1.90051     15.42975     11.36044         0.122085      0.454001      0.256747
O      13.54292      3.82806     11.45056         0.017440      0.312550     -0.493752
O      13.34227     15.44389     11.31070         0.520828      0.349510      0.027489
O       1.86399      7.81932      2.74400         0.206421     -1.837126      0.006364
O       2.10178      7.69551     15.55971        -0.315510      0.249419      0.568498
O      13.55518      7.72357      2.63337         0.131677      0.885395      0.404364
O      13.54840      7.74523     15.66411        -0.542725     -0.202048      0.284641
O       1.82258      7.76366      7.13209         0.807653     -0.038301     -0.275067
O      13.49307      7.75863      6.98800        -0.040990     -0.202634      0.146703
O       1.93310      7.70435     11.38550        -0.163524     -0.192838      0.078812
O      13.51957      7.67817     11.36230        -0.130510      0.843061     -0.247910
O       1.98596     11.58093      2.64218        -0.731397     -0.295254      0.160948
O       1.91704     11.57836     15.67560        -0.357169     -0.111356      0.139588
O      13.46593     11.61052      2.71095         0.656862     -1.173467     -0.118480
O      13.43149     11.54878     15.67945         0.706495      0.279979      0.527960
O       1.98582     11.56582      6.80412        -0.266113     -0.024370      0.576023
O      13.49763     11.58522      7.10147        -0.255051      0.069360     -0.145570
O       1.85858     11.55761     11.41877         0.170391      0.967064      0.141685
O      13.53252     11.52780     11.32157         0.001317      0.814653      0.294973
O       5.73123      3.97285      2.60948         0.020509     -0.177649      0.456606
O       5.85601      3.88821     15.77824        -0.239384     -0.000465     -0.078778
O       5.77653     15.42925      2.61202        -0.090658      1.096224      0.342457
O       5.72035      0.00004     15.78957        -0.069337      0.296734      0.235982
O       5.60060      3.85192      6.94664         0.846329      0.244117      0.246532
O       5.78085      0.02508      6.99314        -0.343355     -0.992821     -0.074202
O       5.79118      3.79683     11.30143         0.017145      0.494078      0.098332
O       5.83680      0.01930     11.26189         0.113267     -1.336756      0.488871
O       5.88516      7.86726      2.59296        -0.444480     -1.719675      0.246705
O       5.66354      7.70979     15.74052         0.084939     -0.202847     -0.297412
O       5.96883      7.70686      6.95675        -0.644865      0.910588      0.607733
O       5.76777      7.74086     11.35668        -0.303246     -0.329106     -0.011252
O       5.88305     11.64842      2.65201        -0.546918     -0.510436      0.013508
O       5.79210     11.63166     15.67003         0.054343      0.391338      0.423645
O       5.70554     11.56119      6.99055        -0.125707      1.003692      0.337135
O       5.62826     11.55665     11.23066         0.644550      1.274609      0.500298
O       9.68500      3.90259      2.62178        -0.307249      0.430054      0.465321
O       9.59067      3.96310     15.81001         0.398596     -1.047378      0.213936
O       9.71941      0.03477      2.63545        -0.744282     -0.098160      0.452992
O       9.71155      0.04876     15.64839         0.411379     -0.064804      0.471374
O       9.59766      3.80506      7.13738         0.537856      0.445083     -0.044576
O       9.53868      0.05666      7.00781         0.322534     -0.726497      0.455109
O       9.60992      3.87606     11.25793         0.247902     -0.544950      0.146202
O       9.73995     15.45962     11.48447         0.211743     -0.447493      0.092721
O       9.63061      7.75055      2.77934         0.008729      0.026926     -0.000420
O       9.64729      7.73274     15.67853         0.233772     -0.155422      0.558032
O       9.50088      7.76645      6.98246         0.352913     -0.910438      0.266464
O       9.55161      7.73708     11.46344         0.317989      0.323115     -0.027362
O       9.69292     11.59622      2.66304        -0.339315     -0.279452      0.136451
O       9.51728     11.55408     15.77063         0.502686      0.653241      0.339722
O       9.67465     11.63563      6.98303         0.345594      0.026455      0.582916
O       9.66118     11.56780     11.46551         0.051615     -0.729686      0.170192
