  # total energy = -7882.59040695 
CRSYTAL
PRIMVEC
    15.464    0.0000000000000000    0.0000000000000000
     0.0000000000000000   15.464    0.0000000000000000
     0.0000000000000000    0.0000000000000000   17.350608
PRESSURE
0.354349 0.123498 -0.68315 0.363567 0.053722 0.031941
PRIMCOORD
320 1
Pb       3.83104      4.08944      4.32353         0.329659     -0.647791     -0.109102
Pb       3.80609      3.92602      0.09233        -0.202077     -0.157062     -0.385640
Pb       3.72527     15.40688      4.30536         0.380391      0.171473      0.406577
Pb       3.76971     15.34629     17.31352        -0.056934      0.838023      0.482212
Pb       0.10096      3.88158      4.29416        -0.339349     -0.071783      0.623248
Pb       0.00983      3.89826     17.30033         0.229314     -0.067385      0.314793
Pb       0.05935     15.43006      4.34367        -0.377848      0.056355     -0.267383
Pb       0.05639     15.43885     17.28941        -0.439154     -0.255525      0.256017
Pb       3.89435      3.85718      8.62007        -0.134716      0.365770      0.499688
Pb       3.78989     15.44039      8.63128         0.282319     -0.074413      0.061818
Pb       0.02990      3.80217      8.70602        -0.356034      0.027091      0.112446
Pb      15.40795     15.37676      8.54740        -0.098600      0.318054      0.864743
Pb       3.94552      3.73494     12.93713        -0.636834      0.066632      0.810577
Pb       3.88284     15.34776     12.95246         0.025976      0.179584      0.584760
Pb       0.05018      3.75663     12.90741         0.198298      0.584520      0.789836
Pb       0.03887      0.02768     12.97457        -0.324053     -0.396152      0.623338
Pb       3.72944      7.74827      4.34240         0.539757      0.434908      0.205362
Pb       3.78105      7.64393     17.31075         0.368744      0.142091      0.009950
Pb      15.44833      7.72140      4.28087         0.624826      0.356407      1.267853
Pb      15.40090      7.66569     17.21777        -0.014186      0.550190      0.684632
Pb       3.92551      7.78927      8.60535        -0.298338     -0.156238      0.854606
Pb       0.02444      7.67682      8.62618        -0.620352     -0.139957      0.454601
Pb       3.86008      7.69413     12.92560        -0.093374      0.474061      0.444631
Pb      15.45711      7.76750     13.02447        -0.195994     -0.122072      0.087576
Pb       3.64713     11.56887      4.20708         1.196360     -0.322496      1.370820
Pb       3.77633     11.58362     17.27749         0.357037     -0.206031      0.451935
Pb      15.40070     11.48844      4.20809        -0.338534      0.474012      1.209588
Pb       0.00744     11.55628     17.24497        -0.183799     -0.451943      0.661748
Pb       3.76923     11.61052      8.43275         0.123407     -0.507423      1.673373
Pb      15.37544     11.50642      8.69262         0.067056      0.611407      0.228659
Pb       3.85640     11.56529     12.91870        -0.193867      0.235295      0.720066
Pb      15.39216     11.68032     13.00450        -0.459010     -0.071899      0.524334
Pb       7.66826      3.93368      4.23462        -0.125629      0.005909      0.324588
Pb       7.70430      3.94348     17.33408        -0.106636      0.110035     -0.162482
Pb       7.66447     15.43432      4.30412        -0.252099     -0.194226      0.062269
Pb       7.69956     15.42593     17.30760         0.190756      0.786254      0.739043
Pb       7.70105      3.81172      8.70455         0.333360      0.099262     -0.388603
Pb       7.65519      0.02329      8.60743         0.001908     -0.152316      0.205260
Pb       7.67149      3.73500     12.91752         0.656877      0.479399      0.794647
Pb       7.71372     15.33700     12.93378         0.166768     -0.050053      0.096657
Pb       7.60491      7.68952      4.26942         0.591798      0.077656      0.508550
Pb       7.65578      7.58171     17.27782         0.012863      0.211535      0.393605
Pb       7.76835      7.71307      8.62823         0.447957     -0.132227      0.549208
Pb       7.60537      7.66555     12.90814         0.743424     -0.024788      0.415555
Pb       7.65431     11.55315      4.14224         0.061504      0.712221      1.011191
Pb       7.70253     11.49342     17.30636         0.227014      0.170822      0.758800
Pb       7.55386     11.60740      8.62347         0.447160      0.323722      0.585526
Pb       7.75644     11.60946     13.02973        -0.059534      0.305561     -0.067060
Pb      11.67510      3.86599      4.20160        -0.282138      0.186489      0.478316
Pb      11.65687      3.89619     17.32493        -0.322743      0.388131     -0.470195
Pb      11.59978     15.44861      4.17391         0.159619      0.163844      0.865106
Pb      11.60231      0.13336     17.31475         0.080182     -0.641518      0.414946
Pb      11.63911      3.77597      8.59004        -0.124883     -0.113196      0.613601
Pb      11.59011     15.44824      8.66854         0.133364     -0.054020     -0.120460
Pb      11.70856      3.71717     12.98764        -0.915178      0.943488      0.832669
Pb      11.74790     15.37850     12.94987        -1.120132     -0.328506      1.057862
Pb      11.61389      7.78204      4.29536        -0.200442     -0.079590      0.309296
Pb      11.62694      7.78866     17.24464        -0.097598     -0.616164      0.389955
Pb      11.70849      7.73475      8.60355        -0.368001     -0.010457      0.282650
Pb      11.60014      7.86105     12.97577        -0.400858     -0.872913      0.426721
Pb      11.55451     11.46709      4.18713         0.182216      0.324695      0.521996
Pb      11.58089     11.47715     17.28507        -0.019999      0.369201      0.415068
Pb      11.58200     11.47541      8.61902        -0.019409      0.605508      0.261813
Pb      11.58969     11.58288     13.06969        -0.023080      0.398366     -0.044716
Ti       1.92728      1.97013      2.32837        -0.192724     -0.273129     -0.943811
Ti       1.92353      1.84797     15.33393         0.348537      1.561204     -0.848891
Ti       1.90873     13.41099      2.34826        -1.136327      1.288620     -0.494568
Ti       1.94864     13.47460     15.34315        -0.063111     -0.310738     -0.962486
Ti      13.52060      1.95186      2.24606         1.134883     -0.308073      1.771898
Ti      13.60632      1.90458     15.35051        -0.862054      0.041239     -0.295732
Ti      13.50366     13.52571      2.32567         0.695677     -0.270547     -0.325974
Ti      13.48260     13.49016     15.44837        -0.300610      0.123512     -1.225802
Ti       1.85233      1.98998      6.67768         0.182187     -0.627317      0.654949
Ti       1.86558     13.50275      6.69786         0.356655      0.266980     -1.974927
Ti      13.48393      1.93317      6.61424         0.091725     -0.564640     -0.632524
Ti      13.49841     13.48682      6.60458        -0.246290      0.615176      1.671987
Ti       1.93055      1.87422     11.04771         0.081062     -0.684833      0.010243
Ti       1.87240     13.41592     11.15509        -0.478895      1.401729     -0.518482
Ti      13.58192      1.93140     11.12493        -1.384480     -0.315953     -2.345382
Ti      13.49271     13.56544     11.00492         0.088050     -0.213147     -1.035852
Ti       1.90968      5.82271      2.31697         0.110360      0.058905     -0.123352
Ti       1.92248      5.75486     15.26450         0.645163     -0.275585      0.952044
Ti      13.59931      5.79714      2.46582        -0.333408      1.405587     -1.198789
Ti      13.57836      5.74098     15.26332        -1.667016      0.642490     -0.418200
Ti       1.89291      5.82267      6.84208         0.084997      0.156148      0.116102
Ti      13.49486      5.78647      6.63308         0.454067     -0.304615      0.642271
Ti       1.94011      5.77200     11.05361        -0.011010     -0.418524     -0.996157
Ti      13.54354      5.78740     11.10079        -0.740418      0.856371     -1.273593
Ti       1.97054      9.59617      2.31805        -0.374594     -0.294004     -0.419085
Ti       1.96666      9.64432     15.30600        -0.501938     -0.331489     -0.113982
Ti      13.57148      9.59632      2.31521         0.050513      0.900422     -1.172831
Ti      13.51502      9.63305     15.30969         0.273627      0.137814      0.232280
Ti       1.83654      9.63807      6.66366         0.570008     -0.216493     -0.872986
Ti      13.56821      9.65885      6.62436        -1.479314      0.324325     -1.479053
Ti       1.79223      9.58056     11.02572         1.286676      1.581924     -0.013334
Ti      13.50361      9.64248     11.05858         0.087866      0.832155     -0.559844
Ti       5.68660      1.91321      2.29895        -0.341011      0.535731      1.385393
Ti       5.71994      1.98736     15.48814         0.181195      0.264296     -0.083360
Ti       5.68223     13.54110      2.26104         1.455662     -0.297480      1.145186
Ti       5.81196     13.59616     15.51380        -0.728591     -0.289918     -1.530986
Ti       5.67060      1.98475      6.59309         0.620560     -0.984390     -0.899856
Ti       5.78129     13.52681      6.65328        -0.363399      0.393488     -0.449149
Ti       5.78314      1.94818     11.04260        -0.526253     -1.829055     -0.784524
Ti       5.78688     13.50647     10.90658         0.094402      0.313355     -0.471743
Ti       5.77452      5.89297      2.31988         0.072896     -0.494788     -1.526417
Ti       5.71496      5.81917     15.32826         0.291531     -0.179359      0.282632
Ti       5.83655      5.81905      6.68377        -0.040778     -0.280672     -0.069374
Ti       5.78812      5.80147     11.03559         0.387143     -0.370881     -1.727951
Ti       5.87288      9.69770      2.25360        -1.446882     -0.932576      0.447918
Ti       5.70901      9.72690     15.34191         0.744907     -1.011605     -0.168862
Ti       5.79612      9.62554      6.66401        -0.478851      0.968380     -0.689023
Ti       5.78207      9.68836     11.05070        -0.756008      0.986481     -1.638942
Ti       9.53622      1.98223      2.36818         0.245002     -0.330343     -0.573507
Ti       9.62232      1.97536     15.42809         0.010012      0.670350     -1.434330
Ti       9.65059     13.55660      2.29161        -0.511707     -0.307310     -0.307744
Ti       9.60729     13.60113     15.50070         0.990105     -0.990240     -0.867786
Ti       9.56890      1.90807      6.55787         0.529994      0.102351      2.041139
Ti       9.62565     13.53705      6.63345         0.406366     -0.451628      0.570316
Ti       9.79853      1.87947     11.09646        -1.173258     -0.718505     -0.157291
Ti       9.68904     13.39034     10.97878        -0.693258      1.596599      1.110893
Ti       9.71140      5.84578      2.28069        -0.503915      0.125589      0.664374
Ti       9.65457      5.83220     15.26661         0.275857     -0.616301      1.276291
Ti       9.70501      5.76805      6.65784        -0.029201     -0.100175     -0.552120
Ti       9.71272      5.73761     11.00089         0.243077     -0.076205      1.935084
Ti       9.61467      9.61041      2.34014         0.489239      0.308026     -1.658291
Ti       9.53702      9.64818     15.45065         0.879744     -0.192475     -1.230660
Ti       9.54563      9.69814      6.71349         1.697235     -0.041718     -0.036235
Ti       9.62771      9.63435     11.04777         0.303345     -0.260494     -1.097667
O       1.96630      2.03370      0.52831        -0.568160     -0.443803      0.834225
O       1.96790      1.94718     13.51475        -0.421312      0.078753      1.446299
O       1.95788     13.44005      0.54519         0.053012      0.068813      0.997122
O       2.05255     13.43225     13.57358        -0.744344      0.381824      0.771587
O      13.72612      1.87200      0.52385        -0.455340      0.050555     -0.255178
O      13.49283      2.02584     13.56999         0.367781     -0.005369      0.237578
O      13.53818     13.55677      0.56410         0.174682     -0.019964      0.171390
O      13.33647     13.47905     13.64006         0.501594     -0.042596      1.388249
O       1.91100      2.07089      4.94778         0.109572      0.042431     -0.498819
O       1.99007     13.48223      4.84527        -0.238642      0.002643      1.083685
O      13.55323      1.97997      4.80748        -0.240017      0.234719      1.148545
O      13.58283     13.50517      4.88410        -0.278224      0.101094     -0.844938
O       1.72551      1.93149      9.30823         0.657836     -0.151098     -0.422337
O       1.81102     13.44161      9.41355         0.084151     -0.053549     -0.884545
O      13.36076      1.85123      9.34294         0.577990      0.245207      0.820784
O      13.53536     13.62029      9.20539         0.194982     -0.166322      1.205770
O       1.87014      5.76510      0.57976        -0.066085      0.361064     -0.445851
O       2.05566      5.71590     13.53377        -0.316690      0.118899     -0.601883
O      13.62986      5.96420      0.72131         0.086649     -0.213961     -0.398458
O      13.50793      5.88120     13.48896         0.299516     -0.339769      0.611410
O       1.95621      5.82313      5.12065         0.546666     -0.142737     -1.580910
O      13.43691      5.74679      4.88366         0.170764     -0.026046     -0.344879
O       1.83627      5.74772      9.25438         0.076913      0.300959      1.058509
O      13.61066      5.97291      9.30043        -0.054055     -0.446948      0.709044
O       1.91745      9.65134      0.55599         0.253252     -0.045192      0.478646
O       2.03318      9.60927     13.55744        -0.530569      0.024220      0.460732
O      13.54820      9.61029      0.48445        -0.055478     -0.240126      1.268807
O      13.55830      9.72752     13.51845        -0.239194     -0.349595      0.820897
O       1.86422      9.58681      4.85198         0.222201      0.153595      1.113761
O      13.49268      9.77455      4.78519         0.008861     -0.385869      1.610319
O       1.74323      9.78599      9.26371         0.140801     -0.615684      0.266475
O      13.65053      9.62625      9.26218        -0.432545      0.102896      0.430297
O       5.62155      2.01610      0.57700         0.366336     -0.219507     -0.275759
O       5.74315      1.94105     13.72345        -0.118742      0.243559     -0.107469
O       5.72827     13.44736      0.51675        -0.184478      0.560107      0.042364
O       5.77343     13.66312     13.74996         0.264096     -0.177028      0.436975
O       5.76125      1.96921      4.81231        -0.516736      0.074602      1.038874
O       5.75500     13.51093      4.87480        -0.024864      0.017279      0.643947
O       5.80791      1.70488      9.29365        -0.079770      0.982014     -0.071394
O       5.78689     13.56553      9.10154        -0.079010     -0.229458      0.926017
O       5.81689      5.94588      0.46624        -0.297363     -0.325775      1.850708
O       5.73848      5.67909     13.55488        -0.107200      0.390401     -0.401413
O       5.81596      5.81832      4.88381        -0.236647      0.147934      1.006945
O       5.83327      5.68568      9.25065         0.082058      0.158932      0.286752
O       5.80614      9.65741      0.52252        -0.116672     -0.070979     -0.333251
O       5.84318      9.69589     13.54273        -0.165246      0.049788      0.825753
O       5.92473      9.62061      4.89255        -0.269176     -0.056367      1.033714
O       5.77732      9.80693      9.24181        -0.167842     -0.459025      1.212200
O       9.59757      1.91155      0.59723         0.097421      0.078960      0.667350
O       9.67014      2.10835     13.61098        -0.259559     -0.465369      1.415768
O       9.69038     13.49631      0.50269        -0.328411      0.441134      1.239466
O       9.54777     13.50429     13.71755         0.129915      0.008827      1.055714
O       9.58876      1.89743      4.85063         0.220374      0.183635     -0.871604
O       9.65268     13.48469      4.87063         0.056836      0.153321      0.562308
O       9.71276      1.82558      9.34381        -0.097685     -0.012950      0.013710
O       9.60158     13.47537      9.28291         0.161016      0.066133     -1.037923
O       9.51245      5.95104      0.53957         0.524628     -0.533344      0.658230
O       9.67387      5.80507     13.56784        -0.270643     -0.258276     -1.038597
O       9.71054      5.71502      4.89457        -0.011734      0.242455      0.361841
O       9.77446      5.78560      9.31853        -0.304843      0.160281     -1.941974
O       9.58769      9.55652      0.52482         0.339754      0.203008      1.094559
O       9.58238      9.72422     13.65701        -0.316753     -0.078442      0.480309
O       9.61990      9.71827      4.94260         0.018400      0.062975      0.377535
O       9.82228      9.53085      9.25728        -0.614693      0.332024      1.272959
O       3.74751      1.88315      2.71711         1.202842      0.409485      0.241283
O       3.76170      2.00510     15.78927         0.252381     -0.270896     -0.104106
O       3.86520     13.45081      2.82411        -0.842959      0.046293     -0.940341
O       3.88961     13.54917     15.76148        -0.904805     -0.095818      0.365087
O       0.07058      2.10625      2.83056        -0.647071     -0.684952     -0.715995
O      15.45661      1.97923     15.70974         0.478469     -0.001393      0.061261
O      15.46247     13.51344      2.73796         0.471487     -0.124996     -0.246469
O       0.04786     13.39981     15.81744        -0.353523      0.539475     -0.550025
O       3.79855      1.97092      7.15175         0.152166     -0.008540     -0.333018
O       3.80242     13.49286      7.15689        -0.312644      0.157873     -0.559051
O      15.43661      1.86608      7.06700         0.307037      0.722168     -0.199913
O       0.02800     13.53838      7.09646        -0.589688     -0.167573     -0.340435
O       3.82036      1.74876     11.45354         0.557058      0.592495     -0.456860
O       3.72659     13.61123     11.47403         1.297748     -0.587984     -0.658728
O      15.40042      1.95097     11.46744         0.615146      0.237059      0.002385
O      15.37829     13.61004     11.60469        -0.056961     -0.375104     -0.274101
O       3.88513      6.05697      2.67267        -0.431520     -1.202033      0.242370
O       3.83874      5.71313     15.82158        -0.983715      0.386559     -0.365943
O       0.06765      5.85420      2.89243        -0.009386     -0.391168     -0.390213
O      15.40391      5.78169     15.73433         0.876386      0.177351     -0.486068
O       3.88335      5.89232      7.21777         0.817162     -0.474000     -0.537282
O      15.45189      5.75058      6.99512        -0.504999      0.416273      0.486504
O       3.89671      5.87966     11.29493        -1.098556     -0.389044      0.306031
O      15.45062      5.80305     11.50407         0.705423      0.018746     -0.136467
O       3.87875      9.62527      2.72909        -0.505788     -0.033199     -0.191827
O       3.86865      9.70498     15.75688        -0.011870      0.172503     -0.141479
O       0.00707      9.72335      2.72445         0.315880     -0.849740     -0.408238
O      15.46270      9.63328     15.71926         0.005282      0.124377     -0.447310
O       3.79304      9.49924      7.03683         0.664473      1.163775     -0.468041
O      15.38693      9.52124      7.01356         0.825730      0.626943      0.069885
O       3.75917      9.73551     11.52186         0.604778     -0.490311     -0.950921
O      15.42573      9.60840     11.46604        -0.161831      0.219155      0.151594
O       7.64632      1.94998      2.74347         0.172409     -0.071795     -0.435584
O       7.70583      1.93413     15.77401         0.037695     -0.118333      0.199358
O       7.72294     13.60423      2.73168        -0.574419     -0.280699     -0.558677
O       7.68514     13.59635     15.82752         0.675128      0.202372      0.165087
O       7.62811      1.92685      6.97913         0.754662     -0.025367      0.228012
O       7.67130     13.53367      7.02566         0.190849     -0.161342     -0.188754
O       7.57712      1.97802     11.48644         1.358214     -0.628027     -0.285579
O       7.70249     13.41987     11.40102        -0.028852      0.016027      0.001701
O       7.68807      5.78039      2.71980         0.656672      0.278412     -0.117414
O       7.63113      5.80171     15.68040         0.697761      0.007500     -0.040711
O       7.76159      5.69954      7.05139        -0.536486      0.469867      0.228356
O       7.71303      5.73804     11.27479        -0.108163      0.060790      0.666500
O       7.74069      9.65922      2.70346        -0.243797     -0.097721     -0.108636
O       7.71042      9.54186     15.93001        -0.879381      0.665365     -1.161701
O       7.72024      9.68714      7.16528        -0.381541     -0.077062     -0.328928
O       7.67007      9.78295     11.30744         0.501987     -0.157066      0.339466
O      11.64833      2.03121      2.68438        -0.032347     -0.514959     -0.561856
O      11.67057      1.92819     15.82663        -0.295944      0.142778     -0.053181
O      11.59690     13.61845      2.71643        -0.160709     -0.452648     -0.268470
O      11.59594     13.50263     15.92872         0.257072      0.279075     -0.574016
O      11.53708      1.88906      7.10570         0.253222     -0.014179     -0.782131
O      11.64566     13.59354      7.13388        -0.746970     -0.533637     -0.801547
O      11.61946      1.86962     11.63061         0.058529     -0.037095     -0.915733
O      11.54577     13.51393     11.46586         0.792026      0.214884     -0.262054
O      11.62676      5.90470      2.65555        -0.569059     -0.099964      0.200142
O      11.60907      5.76862     15.73246         0.133261     -0.023793      0.124531
O      11.61908      5.79217      7.03310         0.225210     -0.164387      0.176441
O      11.60013      5.84143     11.41540        -0.081426      0.267137      0.081622
O      11.60528      9.59930      2.68156        -0.199318      0.108211     -0.035587
O      11.54525      9.60173     15.74718         0.444611      0.336583     -0.298577
O      11.62439      9.70562      7.10232        -0.003512     -0.290373     -0.426259
O      11.61557      9.70212     11.49195        -0.645750      0.014812     -0.332305
O       2.05682      3.96986      2.70597        -0.127894     -0.514102      0.396848
O       1.87246      3.91769     15.82171        -0.093438     -0.321380     -0.610677
O       1.90125     15.44594      2.75827        -0.065915     -0.200164     -0.427338
O       1.84567     15.43326     15.66020         0.338590     -0.013839      0.242206
O      13.63864      4.00166      2.61704        -0.486220     -2.610469      0.331107
O      13.48630      3.87861     15.82930         0.460625     -0.128529     -0.455496
O      13.64899      0.00563      2.78033        -0.391217      0.632334     -0.608435
O      13.67149     15.43282     15.65533        -0.360362      0.202633      0.440843
O       1.95005      3.91969      7.22587        -0.100352     -0.929854     -0.378382
O       1.91563     15.42441      6.95355         0.214191      0.528704      0.248782
O      13.61390      3.79724      7.20335        -0.672507      0.507789     -0.770844
O      13.57314      0.03898      7.06317        -0.307655     -0.202581     -0.472621
O       1.93233      3.77859     11.38928         0.046347      1.423490      0.099442
O       1.74199      0.01321     11.50205         0.702419     -0.170014     -0.287033
O      13.39381      3.89950     11.32975         0.811330     -0.376282      0.258776
O      13.52167      0.01951     11.44387         0.008238     -0.061430      0.239711
O       1.92903      7.67067      2.83692        -0.351322      1.392952     -0.452465
O       1.95158      7.74566     15.68253         0.032783     -0.812364     -0.078154
O      13.71181      7.79149      2.86199        -1.242826     -0.342536     -0.492618
O      13.52436      7.71250     15.78659         0.022464     -0.063585     -0.817767
O       1.97041      7.77256      7.17457        -0.689287     -0.379799      0.002332
O      13.50680      7.72895      6.95373        -0.011834     -0.273688     -0.007302
O       1.94394      7.73792     11.50537        -0.435106     -0.832285     -0.601415
O      13.47322      7.82949     11.42599         0.350016     -0.945687      0.300967
O       1.81992     11.50867      2.80111         0.989035      0.740033     -0.926770
O       1.98863     11.57009     15.74421        -0.167371      0.022370     -0.116215
O      13.57433     11.55170      2.72390        -0.709584      0.665217     -0.489941
O      13.54084     11.53676     15.78572        -0.332703      0.037572     -0.213410
O       1.78962     11.55872      7.04801         0.446470     -0.479965     -0.201470
O      13.53276     11.63600      7.09801         0.270215     -1.057394     -0.347495
O       1.72805     11.60294     11.57469         0.673793     -1.126635     -0.615483
O      13.51049     11.74296     11.43793         0.215043     -1.804044     -0.120120
O       5.74498      3.92642      2.72103        -0.497246     -0.178380     -0.142379
O       5.75451      3.93467     15.89825         0.029044     -0.971598     -0.353849
O       5.66482     15.44437      2.76934         0.262377     -0.130020     -0.806166
O       5.68479      0.09966     16.00488         0.419210     -0.718204     -0.560090
O       5.80321      3.88787      7.00466        -0.497608      0.091817      0.230800
O       5.65969     15.45471      7.04617         0.184784      0.429216     -0.301878
O       5.67867      3.82426     11.39119         0.111157      0.244981     -0.295097
O       5.83761     15.31304     11.37017        -0.275740      1.240444      0.479078
O       5.83206      7.74050      2.79214         0.157170      0.490566     -0.366563
O       5.56512      7.72750     15.72381         0.819103      0.453738     -0.501911
O       5.86783      7.80247      7.23219         0.001319     -1.193069     -0.793427
O       5.77715      7.77492     11.31705         0.125072     -0.169773      0.215184
O       5.76863     11.52424      2.65453         0.129863      1.270248     -0.087218
O       5.84976     11.61913     15.83969        -0.209907     -0.474011     -0.643158
O       5.71417     11.58786      7.10301         0.240738     -0.595835     -0.705384
O       5.68463     11.71555     11.44114         0.101079     -1.387937     -0.054062
O       9.67536      3.89773      2.75345        -0.089683      0.060980     -0.531528
O       9.66057      3.85485     15.87539         0.023993      0.133963     -0.057750
O       9.61533      0.01610      2.84279         0.285995      0.278440     -0.798212
O       9.73761      0.04543     15.91377        -0.589859     -0.130477     -0.581134
O       9.75812      3.84779      7.11830        -0.828856     -0.627866     -0.344870
O       9.62839     15.36946      7.14786        -0.185925      1.202622     -0.839349
O       9.69882      3.75741     11.28902        -0.171680      0.998356      0.472002
O       9.63512     15.36699     11.56946         0.009772      0.756138     -0.568227
O       9.62001      7.78796      2.85193         0.073507     -1.068084     -0.383627
O       9.64903      7.66043     15.68014        -0.098053      0.898687      0.057927
O       9.66107      7.70204      7.12114        -0.159504      0.287105     -0.379114
O       9.55487      7.74599     11.55730         0.273472      0.360014     -0.589046
O       9.59829     11.58419      2.72004         0.502569      0.213336     -0.436640
O       9.64632     11.61710     15.84497        -0.386484     -0.494168     -0.214296
O       9.64620     11.61052      7.27542        -0.072398     -0.270698     -1.064743
O       9.72965     11.57836     11.50927        -0.445209     -1.091856     -0.174978
