  # total energy = -7878.47439310 
CRSYTAL
PRIMVEC
    15.464    0.0000000000000000    0.0000000000000000
     0.0000000000000000   15.464    0.0000000000000000
     0.0000000000000000    0.0000000000000000   17.350608
PRESSURE
-0.577903 -0.729389 0.697328 0.050784 0.034675 0.029243
PRIMCOORD
320 1
Pb       4.00123      3.95789      4.50208        -0.612036      0.021958     -0.343353
Pb       4.04531      3.82002     17.21578        -0.809541      0.272246      0.122920
Pb       3.74017      0.17219      4.30023        -0.028510     -0.864435      0.285568
Pb       3.97501      0.05785     17.30777        -0.323200     -0.350084     -0.629312
Pb       0.24970      3.85181      4.47915        -0.299415     -0.384932     -0.724831
Pb      15.39298      3.68476     17.32079         0.442009      0.274176     -0.119298
Pb      15.38932     15.42355      4.20981         0.404451      0.027749     -0.267957
Pb      15.41602     15.44173     17.32097         0.042919      0.024415     -0.152275
Pb       3.87069      3.89669      8.65437        -0.074238      0.189971     -0.634350
Pb       3.83248     15.34445      8.60831         0.280078      0.462357     -0.081648
Pb      15.34391      3.71938      8.60703         0.518734     -0.036639     -0.292413
Pb      15.30363     15.36891      8.59541         0.421196      0.080982     -0.529196
Pb       3.82197      3.68607     12.85525        -0.095648      0.266740     -0.159794
Pb       4.01274     15.24695     13.05312        -0.314466      0.408870     -0.878997
Pb       0.07664      3.95350     12.93289         0.131967     -0.362835     -0.173539
Pb       0.05706      0.14399     13.00088        -0.231948      0.089426     -0.441991
Pb       3.70963      7.81177      4.29349         0.032143      0.240054     -0.444350
Pb       3.61788      7.61148      0.06243         0.191093     -0.005238     -1.081445
Pb      15.33289      7.71990      4.27981         0.342012      0.041170     -0.207984
Pb      15.35842      7.68534     17.27398         0.457788     -0.011228     -0.420275
Pb       4.01898      7.88025      8.70023         0.201942     -0.307272     -0.610927
Pb       0.18953      7.56995      8.82215        -0.756545      0.675026     -0.947335
Pb       3.90978      7.66884     12.87860        -0.535095      0.475704     -0.188629
Pb       0.06490      7.91256     12.91407         0.016812     -0.361470     -0.465869
Pb       3.88582     11.65511      4.31587        -0.648348      0.037666     -0.441580
Pb       3.93194     11.54216     17.33000        -0.145264     -0.246786     -0.450854
Pb      15.25393     11.58490      4.32767         0.760973     -0.103172     -0.664932
Pb       0.00883     11.58649     17.27646        -0.100659      0.369855     -0.452645
Pb       3.80960     11.62829      8.66648         0.257130     -0.062591     -0.167237
Pb      15.24068     11.50349      8.57803         0.222562     -0.167430     -0.158908
Pb       3.85658     11.47062     13.05291         0.188625     -0.192628     -0.771838
Pb      15.33877     11.74614     12.80818         0.158899     -0.473198      0.167780
Pb       7.63701      3.83679      4.38817         0.624263      0.110062     -0.041800
Pb       7.75682      3.92416      0.00814         0.214225      0.268136     -0.198431
Pb       7.79298     15.41771      4.24954        -0.153530     -0.110914     -0.083830
Pb       7.61594      0.05181      0.14374         0.187995      0.049786     -0.902603
Pb       7.80072      3.88234      8.58010        -0.073343      0.560466     -0.042891
Pb       7.68983      0.15206      8.60841        -0.467089     -0.469999     -0.072268
Pb       7.75821      3.70590     12.94177        -0.200978      0.274606      0.086972
Pb       7.92200     15.42227     13.12922        -0.121621      0.009455     -0.253032
Pb       7.68858      7.84803      4.32317        -0.335095     -0.110445     -0.359530
Pb       7.78216      7.65970      0.01890        -0.041954     -0.104772     -0.198797
Pb       7.88707      7.63671      8.72970        -0.306159      0.114952     -0.763702
Pb       7.63287      7.66016     12.98168         0.497964     -0.067413      0.006149
Pb       7.71266     11.60989      4.28446        -0.571578      0.300991     -0.711076
Pb       7.64183     11.40368     17.33939        -0.037268     -0.003043     -0.316391
Pb       7.56536     11.69912      8.57537        -0.208527      0.080170     -0.036205
Pb       7.76033     11.48196     12.94312        -0.241727      0.596776      0.274777
Pb      11.43301      3.79852      4.45157         0.221709      0.068680     -0.742434
Pb      11.56240      3.99159      0.03335        -0.327052     -0.259271     -0.015487
Pb      11.66413     15.34829      4.27612        -0.258221      0.502393     -0.684745
Pb      11.57095      0.10698      0.14940         0.068122     -0.019476     -0.035792
Pb      11.75265      3.87384      8.80393        -0.378102     -0.320992     -0.718257
Pb      11.44039     15.38994      8.51257         0.907498     -0.055322      0.344974
Pb      11.70738      3.83759     13.14926        -0.206892     -0.224881     -0.797028
Pb      11.59745     15.31546     13.17454        -0.157006      0.327631     -0.761513
Pb      11.61338      7.67950      4.21021        -0.237399     -0.219522     -0.123617
Pb      11.64015      7.66853     17.23014        -0.331025      0.144820     -0.078918
Pb      11.62553      7.56245      8.78503        -0.153106      0.484510     -0.672397
Pb      11.43219      7.72039     13.10282        -0.115810     -0.078683     -0.613847
Pb      11.49921     11.54326      4.28486         0.302214     -0.020248     -0.592805
Pb      11.51144     11.62495     17.29644         0.115820     -0.273369     -0.239418
Pb      11.31856     11.47107      8.55388         0.741187     -0.025720     -0.082282
Pb      11.63125     11.65520     12.82301        -0.226908      0.207832      0.199106
Ti       1.98241      1.89818      2.18372        -0.827088      0.906110      2.336269
Ti       1.90093      1.92410     15.33614         0.318894      0.735637      2.399944
Ti       1.90399     13.55270      2.21994        -0.505813     -0.646387      1.128822
Ti       1.96053     13.64680     15.32743        -0.589372     -1.077402      0.873883
Ti      13.53409      2.03223      2.40834        -0.572180     -0.494694      0.327397
Ti      13.44019      1.92600     15.35332         0.833570     -0.154624     -1.516671
Ti      13.45935     13.50603      2.17610         0.155529      0.127414      0.441554
Ti      13.49597     13.60400     15.32134         0.989534     -0.546404      0.431208
Ti       1.92683      1.84224      6.61881         0.270409      0.539753      0.753982
Ti       1.85870     13.52404      6.61493        -0.014833     -0.063461     -0.712786
Ti      13.51049      1.85228      6.53434         0.347533      0.339336      1.874489
Ti      13.41060     13.42618      6.63996         0.674710     -0.354978      0.209650
Ti       1.93799      1.86658     10.77375         0.161944      0.433185      0.387748
Ti       1.94342     13.51020     10.81119         0.408464      0.564648     -0.166726
Ti      13.54239      1.86149     10.91540        -0.506472      0.724724      0.415744
Ti      13.52826     13.61080     10.86828        -0.489542     -1.058571     -0.786670
Ti       1.85484      5.73451      2.31606         0.459469      0.289451     -0.383557
Ti       1.82975      5.77701     15.21614         1.345211     -0.280105      0.328356
Ti      13.53316      5.72404      2.24994        -0.729695     -0.080704      2.179547
Ti      13.59652      5.72409     15.25916        -0.435771      0.320041     -0.564628
Ti       1.88008      5.81805      6.60823         0.861643     -0.097467      1.564813
Ti      13.49666      5.83735      6.78153         0.428767      0.040976     -1.213117
Ti       1.92814      5.79158     10.90956        -0.065316     -0.287271      3.446982
Ti      13.49651      5.66831     11.09318         0.315823      0.977896      0.575746
Ti       1.77177      9.69149      2.18144         0.560810      0.558240      1.349695
Ti       1.80815      9.75912     15.33459         1.621024     -0.713614      0.206171
Ti      13.42338      9.58455      2.16746         0.132458      0.810611     -0.949444
Ti      13.51984      9.72207     15.22621         0.003716      0.590898      0.962831
Ti       1.96316      9.74634      6.65674        -1.126471     -0.709219     -0.050602
Ti      13.47105      9.52490      6.67313         0.325433      0.678794      1.672732
Ti       1.92137      9.77842     10.85783         0.416846     -0.837667      1.345201
Ti      13.39592      9.61574     10.91297         1.580485     -0.137275      0.191674
Ti       5.84123      1.94638      2.42790        -0.055572     -0.193975      0.072737
Ti       5.82526      1.89387     15.22854         0.422717     -0.511184      0.777702
Ti       5.67146     13.59963      2.28962         0.602683     -0.983338      2.692859
Ti       5.79531     13.41056     15.24339         0.850630     -0.188991      0.567727
Ti       5.81645      1.99019      6.69795        -0.427838     -0.735816      0.706725
Ti       5.75261     13.61683      6.51720        -0.025551     -0.509387     -1.741938
Ti       5.83216      1.90930     10.92588        -0.498608     -0.763345      1.677888
Ti       5.81341     13.50979     11.17371        -0.064029     -0.450778     -1.161494
Ti       5.73963      5.74857      2.39031         0.136675      0.813929     -0.175475
Ti       5.76567      5.75663     15.28570        -0.182807      0.203048      0.099226
Ti       5.74750      5.84239      6.64133         0.255495      0.597482      2.262513
Ti       5.76176      5.74130     10.98138         0.204412     -0.440879     -1.093083
Ti       5.61353      9.62991      2.32543         1.025749      0.344704      0.662132
Ti       5.76976      9.48492     15.31267        -0.524679      0.914091      0.416545
Ti       5.74384      9.73747      6.54023         0.909231     -0.988369     -0.314247
Ti       5.90722      9.57988     10.96649        -1.491015      1.591946      0.798234
Ti       9.66366      1.94698      2.40687         0.857326      0.183116      1.030076
Ti       9.67560      1.83626     15.38729        -0.395379      0.506352      0.199741
Ti       9.62440     13.51460      2.18229        -0.699779     -0.111501      1.114112
Ti       9.68660     13.49796     15.36586        -1.059863     -0.045547     -1.185159
Ti       9.71321      1.92961      6.77575        -0.218315      1.615366     -1.754141
Ti       9.61311     13.55944      6.54909        -0.772930     -0.792608      0.518611
Ti       9.65542      1.94337     10.89775         0.527777      0.341213      2.463308
Ti       9.64411     13.65879     10.90901        -0.149811     -0.987713      0.715985
Ti       9.57676      5.77835      2.44573         0.525699      0.399964     -1.838971
Ti       9.64876      5.71979     15.28528        -0.666717      0.236732     -0.175685
Ti       9.62527      5.84595      6.61493        -0.096289     -0.246635      0.457146
Ti       9.58131      5.76197     11.06026         0.545853      0.089080      0.398435
Ti       9.58153      9.67273      2.31108        -0.729859     -0.667388     -0.389259
Ti       9.66226      9.66028     15.30713        -0.494234     -0.502941     -0.178897
Ti       9.60273      9.67031      6.49534        -0.307458     -1.176903      2.925669
Ti       9.62499      9.75063     11.01081         0.128157     -0.652835      0.623197
O       2.00167      1.97827      0.48386        -0.176214     -0.044998     -1.638989
O       1.87141      2.00479     13.66771        -0.026706     -0.794714     -3.341967
O       1.99026     13.58950      0.49909        -0.281991     -0.082976     -1.175601
O       1.90997     13.60326     13.60808        -0.033847      0.430734     -1.804264
O      13.47230      2.02811      0.66662        -0.229514      0.171762     -1.946323
O      13.49054      1.84487     13.52563         0.114668     -0.184372      0.530944
O      13.39209     13.49585      0.42193         0.123572     -0.200419     -0.340312
O      13.53832     13.68707     13.55281         0.126684      0.210974     -0.957302
O       1.86986      1.79176      4.85677         0.006530      0.316843     -1.142816
O       1.91434     13.55231      4.83752        -0.521532      0.010637      0.118800
O      13.42666      1.73225      4.82379         0.075192      0.380007     -1.251130
O      13.43655     13.45733      4.86378        -0.189072     -0.058759     -0.469824
O       1.88311      1.90408      9.02757         0.280391      0.018005     -0.358413
O       2.05391     13.57507      9.01774        -0.001820     -0.400752      0.503104
O      13.57994      2.01724      9.15277        -0.072773     -0.229955     -0.367238
O      13.45542     13.40678      9.10125        -0.036955      0.581027     -0.112278
O       1.83400      5.73500      0.57974         0.261365      0.210322     -1.161639
O       1.78598      5.71005     13.45308         0.340757      0.360450     -0.151936
O      13.39820      5.76079      0.55167         0.133978     -0.299064     -2.337138
O      13.60179      5.67184     13.48095        -0.400559      0.023992     -0.033851
O       1.78385      5.73349      4.88754         0.225285      0.058572     -1.927380
O      13.50498      6.11875      5.02897         0.246978     -0.416080     -0.156542
O       2.01225      5.80138      9.23841        -0.111399      0.113551     -3.096976
O      13.56660      5.79016      9.32550        -0.390093     -0.478423     -1.254042
O       1.72006      9.85490      0.43347         0.319175     -0.661599     -0.809451
O       1.93734      9.61509     13.59922        -0.107571      0.229730     -0.973164
O      13.44632      9.65667      0.35249         0.145848      0.029695      0.843013
O      13.64527      9.78384     13.50074        -0.374090     -0.600500     -1.037321
O       1.96751      9.85772      4.92853         0.186947     -0.598627     -1.023837
O      13.30357      9.52594      4.96700         0.546515     -0.254022     -2.264587
O       1.99360      9.75424      9.12818         0.091174     -0.380755     -0.835967
O      13.56899      9.73821      9.16771        -0.769928     -0.368363     -0.108067
O       5.87697      2.00625      0.69269        -0.054375     -0.421146     -1.604417
O       5.84441      1.84093     13.51716        -0.187815      0.105549     -1.301192
O       5.77337     13.60407      0.59952        -0.043494      0.313304     -2.511789
O       5.80953     13.21076     13.47357        -0.592455      1.014133     -0.399598
O       5.88708      2.00729      4.97412        -0.275248      0.069705     -2.403191
O       5.71179     13.50414      4.69778         0.335646      0.289871      1.155534
O       5.79757      1.78218      9.22485         0.419380      0.432173     -2.522328
O       5.76548     13.40060      9.40959         0.309324     -0.159589     -1.616875
O       5.82503      5.62963      0.64591        -0.264292      0.281637     -0.822108
O       5.90446      5.71655     13.54116        -0.355408      0.392159     -0.506224
O       5.75856      5.71328      4.94984         0.040476     -0.348545     -3.049761
O       5.72041      5.70195      9.19398         0.129742      0.267488     -0.159428
O       5.75642      9.60912      0.59612        -0.163014      0.184245     -1.213303
O       5.84357      9.51245     13.51696        -0.280297     -0.118702      0.326825
O       5.66635      9.68160      4.76808        -0.519764      0.242268     -0.391821
O       5.87661      9.71756      9.23499         0.031490     -0.165233     -1.689909
O       9.70154      1.84319      0.71014        -0.048318      0.355770     -3.063135
O       9.63340      1.80809     13.65545         0.051947     -0.144122     -1.429159
O       9.75554     13.49072      0.44666        -0.413731     -0.079891     -1.542682
O       9.76224     13.60910     13.53640         0.134057      0.245288      0.164636
O       9.77879      1.98845      5.00299        -0.188349      0.018307     -0.425746
O       9.64979     13.42343      4.83570         0.199498      0.321538     -1.374295
O       9.47112      2.05768      9.20237         0.354724     -0.530314     -2.320542
O       9.62180     13.52032      9.15524        -0.054902      0.359455     -0.655686
O       9.55958      5.70418      0.56576         0.176687      0.016861      0.299582
O       9.67413      5.78325     13.50861        -0.072558     -0.069010     -0.170384
O       9.53330      5.82105      4.86554         0.479547     -0.032564     -0.929729
O       9.57352      5.72854      9.27963         0.264875      0.606762     -0.330951
O       9.48941      9.68216      0.55030         0.234019      0.039216     -1.137159
O       9.71900      9.53305     13.54905        -0.167967      0.260043     -0.649249
O       9.67805      9.58052      4.82830         0.241670      0.153222     -3.285737
O       9.57653      9.70636      9.29450        -0.009828     -0.231880     -1.558170
O       3.86056      1.77634      2.57604         0.153097      0.533690      0.357118
O       3.94859      1.95206     15.61376        -0.367171     -0.167613      0.543769
O       3.74237     13.71935      2.61403         0.614485      0.118261      0.189051
O       3.84516     13.52496     15.60645         0.704457     -0.131679      0.303031
O      15.37175      2.03161      2.62401         1.137458     -0.401981      0.486595
O      15.41337      1.86867     15.73166         0.339135     -0.215778      0.340369
O      15.36558     13.56665      2.53572        -0.599458     -0.164372      0.293077
O      15.43803     13.69330     15.68156         0.219999      0.308889      0.470879
O       3.94531      1.71251      6.90107        -0.808727      0.015952      0.389469
O       3.86145     13.74965      6.79886         0.175763     -0.628715      0.730003
O      15.43073      1.94289      6.92188        -0.529652      0.036829      0.183472
O      15.36022     13.39146      6.98535         0.171689      0.136985      0.023368
O       3.88590      1.95005     11.28176        -0.879348      0.250250      0.276696
O       3.90428     13.33010     11.38169        -1.076653      0.653882      0.660668
O       0.03520      1.87028     11.20493         0.106137     -0.100106      0.549150
O       0.01549     13.50430     11.05961         0.302869      0.068084      0.715756
O       3.80315      5.67384      2.63914         0.594759      0.514204      0.809785
O       3.80586      5.89971     15.57136         0.374736     -0.844474      0.607542
O      15.44299      5.85453      2.62477        -1.202917     -0.140501      0.682969
O      15.44074      5.79448     15.63119        -0.717862     -0.109303      0.503966
O       3.87523      5.73930      6.90940        -0.835072     -0.082692      0.534492
O       0.06168      5.59158      7.03871        -0.552008      0.463933      0.542019
O       3.87924      5.68393     11.25278        -0.508550      0.122393      0.842168
O      15.44659      5.78075     11.38101         0.440328      0.097371     -0.304247
O       3.71367      9.68719      2.61345         0.036952     -0.298205      0.177456
O       3.85019      9.76888     15.74404        -0.405502     -0.644928      0.011548
O      15.39681      9.68543      2.63495        -1.131392     -0.296668      0.283047
O      15.42930      9.53678     15.62338        -0.780086      0.008224      0.439274
O       3.91824      9.67196      7.05617        -0.851326     -0.100937      0.463659
O       0.03384      9.67647      6.92124        -0.482812      0.398475      0.396163
O       3.95396      9.65593     11.29088        -0.914362      0.191483      0.344678
O      15.45857      9.75183     11.15886         0.422726     -0.277940      0.692634
O       7.79352      1.94131      2.68494        -0.836104      0.367662      0.909100
O       7.73112      1.72843     15.65252        -0.283704      0.416461      0.732085
O       7.69048     13.46780      2.59052         0.358835      0.168273      0.347549
O       7.74570     13.45850     15.38764        -0.149401      0.276663      1.009007
O       7.74978      2.02378      6.93389         0.683677     -0.213921      1.093536
O       7.72974     13.43718      6.78710        -0.139657      0.105411      0.797383
O       7.71040      1.75253     11.38815         0.565731      0.312656      0.123310
O       7.70060     13.46437     11.38477         1.554092      0.925960      0.332997
O       7.69310      5.75489      2.65172        -0.539504     -0.067116      0.755825
O       7.70258      5.79822     15.72002        -0.014907     -0.117530      0.214224
O       7.76110      5.83121      6.99378        -0.874575     -0.440213      0.612827
O       7.66413      5.77868     11.31891         0.656589      0.440877      0.402774
O       7.57257      9.67579      2.60333         0.745546      0.432057      0.916470
O       7.65619      9.64069     15.68373         0.387026     -0.138695      0.326022
O       7.64366      9.59692      6.61548         0.688746      0.343648      1.039184
O       7.75547      9.48862     11.36087         0.824510      0.159038      0.444695
O      11.53124      2.01612      2.78870         0.522453     -0.382715      0.561841
O      11.60612      1.97272     15.63441        -0.657529      0.065346      0.746390
O      11.46596     13.50574      2.50389         1.643050     -0.256897      0.894010
O      11.63771     13.42825     15.55323        -0.355447     -0.139243      0.638773
O      11.65879      1.95731      7.05813        -0.647083     -0.424825      0.512190
O      11.50637     13.58944      6.94818         0.106348     -0.318614      0.397334
O      11.54360      1.95289     11.13673         0.230493      0.194991      0.204657
O      11.64302     13.60656     11.24745        -0.606179     -0.189801      0.494501
O      11.53646      5.79497      2.64909         0.569127      0.534468      0.471016
O      11.53188      5.66075     15.60455         0.445988      0.102791      0.388106
O      11.59471      5.94718      7.00947         0.222324     -0.182801      0.700201
O      11.59735      5.58510     11.38390        -0.224105      0.575687      0.137267
O      11.48681      9.61690      2.50370         1.109303     -0.045678      0.507011
O      11.57749      9.73746     15.60348         0.412693     -0.266944      0.303841
O      11.54703      9.51786      6.95919        -0.301527     -0.180524      0.865930
O      11.55193      9.71457     11.32708         0.186000     -0.276954      0.163885
O       1.84620      3.87389      2.63959         0.049895     -1.270715      0.740069
O       1.82688      3.83194     15.54715         0.310090      0.482084      0.930760
O       1.72154      0.07081      2.62013         0.321809     -0.553999      0.046217
O       2.08097      0.04467     15.75583        -0.520856     -0.004568      0.132434
O      13.44892      3.89323      2.70609         0.083359      0.783211      0.437154
O      13.53579      3.83305     15.63547         0.032473      0.334976      0.565242
O      13.37193      0.02133      2.47549         0.013220     -1.205551      0.831095
O      13.45126      0.09098     15.79704        -0.166577     -1.194129      0.202990
O       2.09155      3.71377      6.82339        -0.241600      0.997773      0.510497
O       1.77606     15.44005      6.91042        -0.021815     -0.873163      0.757791
O      13.50855      3.84318      7.03273        -0.292749      0.391638     -0.010203
O      13.52617     15.36356      6.92067        -0.237701      0.628016      0.506393
O       1.87538      3.85132     11.21128         0.341428     -0.315983      0.389092
O       1.99347     15.45038     11.01982         0.138970     -0.687030      1.105412
O      13.51366      3.75233     11.42232         0.305039      0.379886     -0.052885
O      13.58927      0.01930     11.18720        -0.013007     -0.616792      0.415859
O       1.85805      7.75151      2.54345         0.353874      0.206695      0.483744
O       1.86061      7.66400     15.67522         0.062188      0.579962      0.640203
O      13.46224      7.72096      2.47720         0.160661      0.173595      0.784118
O      13.42473      7.60231     15.66590         0.076747      0.807145     -0.028766
O       1.87490      7.70071      6.85388         0.282469     -0.166915      0.754441
O      13.74127      7.71081      7.26912        -0.488169     -0.710163      0.272693
O       2.05855      7.78575     11.34403        -0.823256     -0.308096     -0.277846
O      13.60606      7.70230     11.30234        -0.789088      0.610311      0.137626
O       1.78199     11.60544      2.64826         0.337235      0.713741     -0.133569
O       1.79954     11.64278     15.58479        -0.123226     -0.044876      0.539469
O      13.44169     11.50845      2.66632        -0.186616      0.627103     -0.009664
O      13.74964     11.63835     15.42853        -0.566860     -0.286897      0.813464
O       1.98190     11.59932      7.00094         0.370477      1.070552      0.401885
O      13.36593     11.45971      6.97156         0.174791      1.099936      0.138701
O       1.99560     11.64217     11.21954        -0.290994     -0.438970      0.365841
O      13.47377     11.61537     11.30458         0.213829      0.256057      0.393659
O       5.82876      3.84728      2.74148        -0.356961     -0.320129      0.942016
O       5.77194      3.85444     15.64074         0.501295     -0.300380      0.212525
O       5.98197      0.04928      2.77965        -0.721936     -0.133030     -0.337448
O       5.84551     15.36159     15.58402        -0.613224      0.282841      0.505328
O       5.75539      3.84218      7.00572        -0.043207      0.400072      0.479980
O       6.01635     15.44210      6.96361        -0.210416     -0.285767      0.347389
O       5.86167      3.80683     11.29870        -0.017999      0.013253      0.453920
O       5.62208     15.45618     11.18651         0.310653     -0.948077      1.414337
O       5.74211      7.73019      2.80301        -0.546029     -0.693725     -0.153457
O       5.73985      7.68353     15.79939         0.101222     -0.245482     -0.187570
O       5.72174      7.72636      6.89682         0.045633      0.213565      0.708903
O       5.75336      7.68317     11.20748         0.054243     -0.638894      0.732355
O       5.58385     11.66410      2.59034         0.192187     -0.207161      0.170288
O       5.74721     11.54646     15.75735         0.282467      0.291644      0.193155
O       5.78596     11.61527      6.87246        -0.238643      0.821598      0.668675
O       5.96042     11.46395     11.41463        -0.191678      0.100047      0.300268
O       9.74502      3.92179      2.72678        -0.740300     -0.715404      0.642850
O       9.54081      3.75539     15.60454         0.121869      0.890810      0.645908
O       9.66662     15.45897      2.56585        -0.243646     -0.798351      0.774890
O       9.75893     15.41643     15.70279         0.043762     -0.448599      0.636959
O       9.72532      3.92457      7.05186         0.081609     -0.207533      0.252548
O       9.63050      0.03212      6.93171        -0.059364     -0.470345      0.620735
O       9.50951      3.87929     11.36891         0.222652     -1.251647      0.212154
O       9.76559      0.02242     11.37065        -0.701157     -0.105966     -0.147472
O       9.49899      7.75463      2.62763         0.238700     -0.253606      0.500654
O       9.63778      7.70324     15.57668         0.314058     -0.301644      0.744556
O       9.55766      7.72050      7.03720         0.248488      0.336677      0.549260
O       9.74407      7.69887     11.42236        -0.017212     -0.190009     -0.135420
O       9.64200     11.55436      2.59425        -0.127514      0.577817      0.680388
O       9.56920     11.54173     15.52260         0.447784      0.391525      1.020702
O       9.64821     11.52751      6.82390         0.268099      0.714217      0.680612
O       9.63587     11.67883     11.25003         0.250316     -0.612692      0.532694
