  # total energy = -7881.18615254 
CRSYTAL
PRIMVEC
    15.464    0.0000000000000000    0.0000000000000000
     0.0000000000000000   15.464    0.0000000000000000
     0.0000000000000000    0.0000000000000000   17.350608
PRESSURE
0.424199 0.01127 -1.72551 0.28298 0.042456 0.036832
PRIMCOORD
320 1
Pb       3.82435      4.08790      4.30975         0.129378     -0.589381      0.151145
Pb       3.79400      3.92525      0.09783        -0.124879     -0.317973     -0.457246
Pb       3.73202     15.39823      4.30264         0.126508      0.092647      0.527958
Pb       3.76178     15.34652     17.31562        -0.275008      0.659995      0.534450
Pb       0.08449      3.88223      4.28879        -0.206956     -0.307166      0.631534
Pb       0.01518      3.90727     17.29513         0.182869     -0.068839      0.634545
Pb       0.06091     15.43394      4.34981        -0.370313     -0.004306     -0.230136
Pb       0.05805     15.44215     17.28780        -0.345095     -0.546045      0.417716
Pb       3.89542      3.85756      8.61737        -0.044810      0.210077      0.700284
Pb       3.79114     15.44548      8.62904         0.017816      0.104058      0.084921
Pb       0.04003      3.81457      8.70887        -0.469497     -0.147789      0.262524
Pb      15.41790     15.38112      8.55028        -0.104460      0.134027      0.599899
Pb       3.94647      3.74471     12.94513        -0.478730     -0.012618      0.917477
Pb       3.87562     15.35978     12.95092         0.214499      0.041894      0.625078
Pb       0.04981      3.75253     12.90852         0.141175      0.844283      0.963694
Pb       0.03826      0.01933     12.97257        -0.417374     -0.493892      0.859687
Pb       3.73869      7.74467      4.34536         0.306165      0.283385      0.117448
Pb       3.79600      7.65096     17.29957         0.226457      0.266631      0.151583
Pb      15.45600      7.72152      4.28369         0.905073      0.520549      1.484873
Pb      15.40717      7.66605     17.21583        -0.119003      0.524965      0.718952
Pb       3.91666      7.78175      8.60046        -0.363834      0.064001      1.119731
Pb       0.01085      7.68591      8.61547        -0.561674     -0.013908      0.623139
Pb       3.85520      7.69389     12.92993        -0.052501      0.561737      0.231637
Pb      15.45245      7.75298     13.02580        -0.159953     -0.048467      0.180685
Pb       3.64760     11.56513      4.20558         0.941736     -0.392695      1.347176
Pb       3.77185     11.58473     17.27290         0.286480     -0.258637      0.718123
Pb      15.40949     11.48840      4.20875        -0.194492      0.735945      1.127298
Pb       0.00593     11.55471     17.24241        -0.036694     -0.276084      1.024720
Pb       3.76893     11.60455      8.42880        -0.122016     -0.563203      1.620760
Pb      15.38681     11.51104      8.69789         0.052110      0.616668      0.028833
Pb       3.85797     11.56969     12.91188        -0.238116      0.305721      0.893972
Pb      15.39801     11.67295     13.01612        -0.476809     -0.133726      0.783905
Pb       7.67282      3.93430      4.22523        -0.175291     -0.094449      0.559413
Pb       7.70313      3.93890     17.33085        -0.228681      0.143482     -0.160458
Pb       7.65751     15.43972      4.30641        -0.090565     -0.373202     -0.024830
Pb       7.70616     15.42584     17.29703         0.260893      0.667338      1.213251
Pb       7.69875      3.81131      8.70303         0.305607      0.046072     -0.201647
Pb       7.65681      0.01124      8.60400         0.157080      0.001464      0.243476
Pb       7.67304      3.74301     12.91771         0.614165      0.488322      0.878389
Pb       7.70156     15.33554     12.92264         0.183058     -0.106400      0.426598
Pb       7.60580      7.68449      4.26843         0.514082      0.133308      0.559568
Pb       7.64927      7.58312     17.27052        -0.057380      0.456927      0.436531
Pb       7.76490      7.71674      8.62195         0.353664     -0.106520      0.720272
Pb       7.61262      7.66557     12.90500         0.502605      0.143575      0.481170
Pb       7.65484     11.55159      4.14500         0.112143      0.792410      0.899682
Pb       7.70646     11.50521     17.30530         0.085172      0.058747      0.889738
Pb       7.56160     11.60220      8.62285         0.593694      0.195103      0.710293
Pb       7.75528     11.61401     13.03318        -0.104065      0.325813     -0.120681
Pb      11.68240      3.86997      4.18777        -0.070177      0.007480      0.681708
Pb      11.65620      3.89063     17.31868        -0.190378      0.261266     -0.399109
Pb      11.59405     15.45767      4.17463         0.242400      0.223928      0.912878
Pb      11.60176      0.13000     17.30262         0.284153     -0.694927      0.568348
Pb      11.62447      3.77658      8.57530         0.060519     -0.207328      0.860881
Pb      11.59413     15.45234      8.67124         0.273495     -0.230641     -0.055662
Pb      11.70006      3.72063     12.97856        -1.015689      0.977767      0.705688
Pb      11.74594     15.38362     12.94026        -1.182832     -0.486721      1.340420
Pb      11.60885      7.78413      4.30028        -0.118595     -0.101637      0.441710
Pb      11.61864      7.79066     17.25179         0.163027     -0.662081      0.326658
Pb      11.70691      7.74076      8.58939        -0.313494      0.146940      0.496037
Pb      11.60513      7.85934     12.96332        -0.285381     -0.805056      0.653573
Pb      11.55761     11.47062      4.18654         0.174390      0.644837      0.709643
Pb      11.58212     11.47503     17.28574         0.205672      0.405406      0.462063
Pb      11.59399     11.48302      8.62232         0.115243      0.699294      0.359271
Pb      11.58353     11.57594     13.08168         0.008384      0.459047     -0.137185
Ti       1.94144      1.95231      2.31847        -0.960469     -0.151974     -0.654532
Ti       1.90935      1.86448     15.33578         0.794744      1.221724     -1.164886
Ti       1.91147     13.41071      2.35826        -1.605984      1.011680     -0.467016
Ti       1.96458     13.48422     15.33857        -0.647967     -0.560388     -0.394559
Ti      13.53657      1.93719      2.23041         1.190946     -0.238294      2.755797
Ti      13.62548      1.88421     15.34809        -1.143905      0.219569      0.155953
Ti      13.48075     13.53173      2.32971         1.374088     -0.299549     -0.912692
Ti      13.48768     13.49722     15.45436         0.038768     -0.227198     -1.325927
Ti       1.85452      2.00972      6.66578        -0.132705     -1.210050     -0.054916
Ti       1.87527     13.51342      6.69930        -0.399837     -0.089499     -2.236925
Ti      13.47111      1.91332      6.60779         0.525108     -0.619115     -0.901373
Ti      13.50189     13.48819      6.60422         0.029333      0.278263      1.799064
Ti       1.92325      1.87365     11.06796         0.216076     -0.512738     -0.880249
Ti       1.85570     13.42978     11.15435        -0.445837      0.791772     -1.391242
Ti      13.58528      1.92546     11.14085        -1.498682     -0.409534     -2.725923
Ti      13.49015     13.55966     11.01905        -0.029836     -0.111050     -1.090113
Ti       1.92227      5.80407      2.30424        -0.070686      0.494381      0.846713
Ti       1.93566      5.75889     15.24780         0.243414     -0.391431      1.144279
Ti      13.59585      5.81582      2.47174         0.258082      0.682473     -1.984151
Ti      13.57256      5.73713     15.27985        -1.341672      0.888118     -1.031619
Ti       1.88231      5.79889      6.85375         0.293380      0.586036     -1.433321
Ti      13.48955      5.77428      6.65128         0.413633     -0.090993     -0.226508
Ti       1.94484      5.75244     11.07923        -0.115839      0.015386     -1.727697
Ti      13.54132      5.80091     11.12250        -0.536300      0.345182     -1.583445
Ti       1.97365      9.58094      2.30981        -0.584226      0.157330     -0.042169
Ti       1.97599      9.65133     15.31451        -0.789724     -0.243599      0.072260
Ti      13.54954      9.59483      2.32714         0.806431      1.141519     -1.518878
Ti      13.51790      9.65109     15.33197         0.489570     -0.065652     -0.465632
Ti       1.83269      9.63742      6.68448         0.522155      0.210176     -1.331624
Ti      13.55789      9.65242      6.60422        -1.044047      0.786077     -0.700343
Ti       1.78148      9.58907     11.02882         1.598424      1.393962     -0.236000
Ti      13.51956      9.64768     11.07341        -0.267090      0.871119     -1.271266
Ti       5.69321      1.92926      2.31570        -0.358086      0.199089      0.774826
Ti       5.70599      1.97444     15.51977        -0.170726      0.783484     -1.663839
Ti       5.67358     13.54190      2.26826         1.321341     -0.537598      1.375370
Ti       5.80334     13.60572     15.52835        -0.795792     -0.710148     -2.698181
Ti       5.67806      2.00352      6.59722         0.563795     -1.255280     -0.561974
Ti       5.77809     13.54335      6.67105        -0.299937      0.284667     -1.163376
Ti       5.79141      1.94505     11.05591        -0.815336     -1.571654     -1.191172
Ti       5.77869     13.50862     10.89824         0.228004      0.077456      0.988146
Ti       5.79023      5.86969      2.31225        -0.216572      0.178222     -1.160805
Ti       5.70859      5.82969     15.34268         0.420958     -0.524476     -0.408228
Ti       5.83205      5.80653      6.68935        -0.060884      0.028247     -0.650583
Ti       5.79981      5.79896     11.02325         0.085549     -0.194763     -1.573760
Ti       5.87147      9.68768      2.26630        -1.827732     -0.656816      0.697097
Ti       5.71375      9.73471     15.34113         0.902701     -1.004342     -0.445443
Ti       5.80492      9.63197      6.66051        -0.584286      0.467839      0.212733
Ti       5.76986      9.70556     11.05323        -0.629210      0.662770     -1.498008
Ti       9.55377      1.98659      2.37080         0.254080     -0.763141     -0.129802
Ti       9.58734      1.97929     15.43943         0.781438      0.587298     -2.044266
Ti       9.65996     13.55666      2.26910        -0.699648     -0.268095      0.543884
Ti       9.60788     13.60303     15.50120         1.096284     -1.057172     -1.213156
Ti       9.57177      1.92448      6.56400         0.574087     -0.196851      0.797102
Ti       9.61205     13.53608      6.63956         0.957283     -0.915081      0.127787
Ti       9.77510      1.87156     11.11312        -0.912328     -0.605194     -0.468351
Ti       9.68583     13.41406     10.96740        -0.479677      1.415640      0.420184
Ti       9.74434      5.83337      2.26309        -0.933071      0.254763      1.419208
Ti       9.65293      5.83964     15.27248         0.392562     -0.798302     -0.147089
Ti       9.69192      5.76278      6.64415         0.150576      0.111822      0.281488
Ti       9.71360      5.76195     11.00499         0.409500     -0.566836      1.545843
Ti       9.62700      9.61098      2.33161        -0.215160      0.460802     -1.624115
Ti       9.53937      9.65181     15.43922         0.781084     -0.205064     -1.267688
Ti       9.56381      9.68910      6.71850         1.757438      0.207237      0.033519
Ti       9.62206      9.62399     11.05044         0.384361      0.484517     -1.271706
O       1.98460      2.02858      0.50554        -0.453506     -0.542975      0.950883
O       1.94828      1.95057     13.49502        -0.341003      0.128119      1.711042
O       1.98977     13.40845      0.54485         0.048733      0.360921      0.952962
O       2.05990     13.42620     13.59639        -0.775840      0.353843      0.058889
O      13.73361      1.87989      0.52658        -0.435522     -0.037405     -0.832312
O      13.47749      2.04442     13.58842         0.577692     -0.129327      0.244526
O      13.52358     13.53730      0.53911         0.115957      0.135420      0.813876
O      13.32862     13.48545     13.63583         0.587321     -0.077203      1.589732
O       1.89688      2.08487      4.90340         0.252687     -0.036356      0.612277
O       1.97500     13.45690      4.82607        -0.065368      0.085656      1.214262
O      13.56070      1.96705      4.79317        -0.434193      0.213281      1.320096
O      13.58435     13.49993      4.89019        -0.399499      0.115743     -1.065735
O       1.71603      1.89816      9.28435         0.809296     -0.060276      0.683619
O       1.79410     13.40955      9.37145         0.097789      0.151294      0.398442
O      13.35495      1.82935      9.35733         0.644999      0.215437      1.050170
O      13.54116     13.63606      9.21740         0.197879     -0.216475      1.335794
O       1.84525      5.76864      0.57987         0.050770      0.267402     -0.560604
O       2.04284      5.71693     13.51229        -0.324093      0.147392     -0.404311
O      13.63017      5.97854      0.68109         0.005081     -0.348215      0.674871
O      13.53752      5.84521     13.46089         0.222089     -0.322063      1.356508
O       1.95706      5.81095      5.03659         0.495086     -0.169382      1.047758
O      13.41808      5.74006      4.88385         0.261026      0.004499      0.125639
O       1.81900      5.76083      9.22777         0.273377      0.088888      1.531881
O      13.63315      5.99677      9.32134        -0.145463     -0.547212      0.753220
O       1.90120      9.70328      0.56097         0.395613     -0.386382      0.082704
O       2.02591      9.61967     13.57458        -0.535130     -0.088004      0.382247
O      13.53835      9.59695      0.46324        -0.170984     -0.294371      1.973361
O      13.56331      9.72622     13.49876        -0.243494     -0.296690      1.427818
O       1.86297      9.60601      4.87189         0.304005      0.088965      1.098376
O      13.48027      9.77688      4.79226        -0.125010     -0.456458      1.006720
O       1.74585      9.78558      9.25903         0.156034     -0.606280      0.488040
O      13.61635      9.61296      9.22554        -0.312606      0.050148      1.567267
O       5.63036      2.02881      0.55954         0.370509     -0.267191      0.630994
O       5.72480      1.95463     13.67764         0.002313      0.155570      1.316768
O       5.70756     13.45429      0.52572        -0.211228      0.589771     -0.238341
O       5.76150     13.63544     13.69906         0.356612     -0.037652      1.977984
O       5.75757      1.99280      4.83121        -0.449093     -0.007721      0.675239
O       5.75230     13.51163      4.87341        -0.065771      0.022245      1.281825
O       5.80939      1.73215      9.27196        -0.010687      0.875545      0.593906
O       5.77682     13.51646      9.13186        -0.045654      0.080867      0.162657
O       5.81774      5.95033      0.44810        -0.303484     -0.409273      1.901475
O       5.75383      5.66845     13.54795        -0.107101      0.509768      0.246737
O       5.83899      5.81801      4.84475        -0.290486      0.080447      1.880164
O       5.83391      5.66716      9.23352         0.116861      0.208519      0.762353
O       5.80608      9.62324      0.54648        -0.065067     -0.098419     -0.681470
O       5.88145      9.67671     13.54275        -0.302710      0.099365      1.077146
O       5.94077      9.60200      4.91941        -0.267724      0.022664      0.588547
O       5.79201      9.78421      9.24803        -0.253233     -0.231798      0.998691
O       9.59979      1.90195      0.60803         0.038650      0.199909      0.551768
O       9.64276      2.07264     13.58133        -0.289618     -0.354934      2.023727
O       9.69465     13.49304      0.50527        -0.257501      0.418620      0.661610
O       9.55741     13.49761     13.70917         0.145464      0.117711      1.736722
O       9.59260      1.88654      4.80614         0.219838      0.299428      0.825944
O       9.67538     13.46263      4.85233        -0.100985      0.195541      1.084390
O       9.70226      1.83514      9.33542        -0.142546     -0.008117      0.534455
O       9.60985     13.46883      9.23764         0.079412      0.145650     -0.041262
O       9.51473      5.95282      0.55761         0.521673     -0.559651      0.125402
O       9.68563      5.78403     13.53293        -0.373844     -0.079824      0.099902
O       9.68351      5.71599      4.90577         0.041721      0.241014     -0.004927
O       9.78070      5.75611      9.30835        -0.342364      0.189040     -1.371393
O       9.58895      9.55556      0.50773         0.370835      0.195294      1.438788
O       9.55545      9.73792     13.63042        -0.182637     -0.187394      1.051004
O       9.60084      9.74128      4.94278         0.155548     -0.028363      0.417955
O       9.85367      9.54375      9.25055        -0.796029      0.219165      1.699751
O       3.72134      1.88290      2.74050         2.149940      0.337540      0.074486
O       3.77606      2.02108     15.79683         0.169410     -0.575341     -0.159975
O       3.81812     13.44520      2.83934        -0.023377      0.283478     -1.045516
O       3.87890     13.50572     15.72949        -0.371173      0.311206      0.549703
O       0.06753      2.06713      2.83126        -0.577377     -0.409832     -0.864674
O       0.04446      2.00374     15.72515        -0.655089     -0.161865     -0.128393
O      15.44777     13.53622      2.73957         0.558069     -0.269550     -0.298095
O       0.02922     13.40196     15.83935        -0.062356      0.578932     -0.709624
O       3.82450      1.91734      7.16080        -0.223122      0.465901     -0.450363
O       3.73768     13.52044      7.17289         1.047870     -0.204929     -0.486681
O      15.44441      1.87199      7.04695         0.460906      0.655244     -0.162972
O       0.03898     13.52469      7.06856        -0.991287      0.009580     -0.013474
O       3.84885      1.74259     11.47418        -0.073981      0.697592     -0.636779
O       3.71735     13.56660     11.47746         1.272376     -0.218007     -0.738644
O      15.41798      1.99315     11.48679         0.543889     -0.242142     -0.186579
O      15.37501     13.55343     11.64253         0.287544      0.251480     -0.431659
O       3.89062      6.03761      2.68666        -0.356582     -1.053938     -0.040626
O       3.82088      5.73494     15.81478        -0.749286      0.259545     -0.414854
O       0.06343      5.85861      2.95079         0.043573     -0.421173     -1.036519
O      15.41195      5.74155     15.76540         0.646916      0.427958     -0.778758
O       3.91172      5.87080      7.23981         0.236497     -0.648391     -0.815079
O      15.45995      5.74005      7.04222        -0.284477      0.280483      0.142847
O       3.87939      5.87808     11.34021        -0.535529     -0.289527      0.015239
O       0.00782      5.81256     11.50164         0.364487     -0.149563     -0.098725
O       3.85516      9.62091      2.71099        -0.132990     -0.006407     -0.038699
O       3.88246      9.69767     15.74772        -0.240769     -0.016992     -0.115561
O       0.03523      9.72996      2.74715        -0.608214     -1.152418     -0.601823
O      15.45634      9.66522     15.75026         0.137694     -0.259178     -0.681570
O       3.79980      9.52079      7.03272         0.848382      1.014302     -0.382182
O      15.39840      9.54028      6.99479         0.424178      0.350524      0.114326
O       3.76527      9.70880     11.54464         0.485412     -0.284120     -1.008273
O      15.43456      9.60935     11.47127        -0.596869      0.250835      0.075471
O       7.64035      1.89922      2.79537        -0.043727      0.357563     -0.807074
O       7.70924      1.95551     15.82459        -0.128217     -0.169541     -0.044780
O       7.69873     13.57834      2.70847        -0.293663     -0.114042     -0.505553
O       7.67750     13.57521     15.84664         0.763273      0.241755     -0.006133
O       7.64066      1.93624      6.99060         0.873753     -0.242569      0.125788
O       7.69468     13.56000      7.03651        -0.575575     -0.315209     -0.263598
O       7.57558      1.96141     11.48681         1.540373     -0.399676     -0.350034
O       7.72887     13.42188     11.42060        -0.565496      0.211724     -0.323796
O       7.66953      5.76559      2.72008         0.954223      0.324588     -0.329161
O       7.64426      5.80360     15.69894         0.497569     -0.227940     -0.133633
O       7.76189      5.73316      7.08313        -0.343800      0.263588     -0.007138
O       7.72729      5.69996     11.30337        -0.300766      0.382825      0.357220
O       7.69721      9.64019      2.72338         0.923525      0.100725     -0.209004
O       7.71439      9.56745     15.93404        -0.681147      0.403836     -1.165127
O       7.74900      9.66402      7.19055        -0.836188     -0.120005     -0.448386
O       7.63388      9.78868     11.31460         1.452490     -0.182774      0.298609
O      11.64846      2.03072      2.70191        -0.095655     -0.530933     -0.774746
O      11.66121      1.90091     15.84313         0.076833      0.393107     -0.274826
O      11.59523     13.62190      2.73282        -0.430901     -0.471687     -0.453695
O      11.63297     13.51229     15.93207        -0.567914      0.218026     -0.567727
O      11.55888      1.87445      7.13324        -0.332631      0.017657     -0.980690
O      11.66976     13.53505      7.14179        -1.056242     -0.143883     -0.725605
O      11.61877      1.83006     11.63248        -0.210298      0.263386     -1.015290
O      11.55703     13.54939     11.47829         0.668312      0.066134     -0.410757
O      11.65497      5.90512      2.67340        -1.124396     -0.141203     -0.018512
O      11.58400      5.74389     15.72443         0.314388      0.126251      0.147450
O      11.64159      5.78450      7.02691        -0.337872     -0.273886      0.142473
O      11.60897      5.84538     11.43145        -0.078926      0.233829     -0.069892
O      11.60109      9.59680      2.68381        -0.164937      0.066476     -0.172709
O      11.56709      9.56771     15.74763        -0.021277      0.660493     -0.357716
O      11.64264      9.71980      7.13630        -0.234821     -0.536016     -0.818956
O      11.59689      9.70886     11.52859        -0.308351      0.031996     -0.569803
O       2.07313      3.95770      2.72589        -0.358674     -0.293471     -0.048780
O       1.87191      3.89205     15.83802         0.176374      0.122054     -0.818085
O       1.87791     15.45875      2.77793         0.232028     -0.194931     -0.620757
O       1.81354     15.41309     15.63312         0.617101      0.535477      0.349337
O      13.67360      3.98684      2.64958        -0.753023     -1.789792      0.027135
O      13.48111      3.90186     15.86530         0.457758     -0.631599     -0.649250
O      13.66916     15.44537      2.79113        -0.742373      0.973862     -0.784961
O      13.68382     15.42404     15.66292        -0.266499      0.816736      0.304984
O       1.94846      3.88290      7.24526         0.032140     -0.269529     -0.624869
O       1.89520     15.39955      6.95174         0.337764      1.186072      0.260683
O      13.59527      3.74807      7.18406        -0.496032      1.196934     -0.554543
O      13.57587      0.03580      7.07313        -0.343730     -0.234094     -0.474653
O       1.94793      3.78960     11.37658         0.028298      1.146637      0.066219
O       1.75598      0.02164     11.53112         0.591808     -0.430071     -0.549304
O      13.40519      3.86001     11.31293         0.666785      0.322616      0.360296
O      13.55399      0.01302     11.48325         0.155791     -0.005900      0.154557
O       1.92045      7.68416      2.84370        -0.204372      0.776608     -0.656044
O       1.91663      7.72487     15.72811         0.203193     -0.588653     -0.412614
O      13.68976      7.78189      2.90548        -1.249104     -0.048670     -0.776877
O      13.50090      7.71263     15.78008         0.292216     -0.317973     -0.799795
O       1.98133      7.77270      7.19098        -0.666001     -0.943771     -0.243385
O      13.50782      7.71925      6.95553         0.036243     -0.401067     -0.104226
O       1.91213      7.74121     11.49538        -0.173126     -0.783324     -0.428296
O      13.47426      7.83402     11.46163         0.405788     -0.902980      0.065606
O       1.81337     11.52386      2.79582         1.080745      0.512270     -0.840541
O       1.98522     11.56445     15.76534        -0.161154     -0.047567     -0.349987
O      13.58802     11.56782      2.70215        -0.917414      0.098462     -0.430753
O      13.57439     11.53038     15.81984        -0.849822      0.086843     -0.520518
O       1.75815     11.55868      7.09814         0.743466     -0.604809     -0.367170
O      13.54547     11.62110      7.07977         0.280517     -0.994958     -0.283730
O       1.73640     11.60318     11.58042         0.668046     -0.914615     -0.664563
O      13.52427     11.74712     11.46598         0.014893     -2.078901     -0.254353
O       5.71933      3.92770      2.75990        -0.260138     -0.424544     -0.571042
O       5.71543      3.91108     15.90148         0.335545     -0.589583     -0.308936
O       5.66386     15.43150      2.77850         0.096339      0.328309     -0.842588
O       5.70154      0.08675     16.03056         0.278386     -0.673721     -0.819151
O       5.83052      3.88304      7.04286        -0.552826      0.128816      0.015571
O       5.62523     15.45022      7.04116         0.545605      0.115455     -0.201543
O       5.65416      3.84868     11.40798         0.395545     -0.048155     -0.531834
O       5.82697     15.33576     11.44711        -0.263901      0.629998     -0.285189
O       5.82651      7.76279      2.82421         0.018020     -0.289756     -0.620481
O       5.58884      7.71746     15.69182         0.708825      0.390020     -0.267723
O       5.82188      7.75944      7.27186         0.468452     -0.590913     -1.190564
O       5.77829      7.81032     11.32189         0.151324     -1.154503      0.235348
O       5.74722     11.54253      2.65052         0.148145      0.962151     -0.023475
O       5.85071     11.59711     15.85203        -0.183169     -0.053274     -0.684475
O       5.72292     11.58236      7.10906         0.276975     -0.308796     -0.844555
O       5.71803     11.71681     11.49878        -0.041733     -0.976693     -0.492733
O       9.66516      3.88922      2.77565        -0.057814      0.434259     -0.818550
O       9.69300      3.84882     15.88546        -0.308743      0.060894     -0.106320
O       9.59354      0.02216      2.86563         0.421135      0.037560     -1.085583
O       9.72996      0.04990     15.95337        -0.743182     -0.312291     -0.899974
O       9.75765      3.82591      7.11086        -0.824649     -0.386943     -0.532053
O       9.64646     15.33790      7.15067        -0.216872      1.745542     -0.822875
O       9.71203      3.77139     11.33125        -0.110760      0.603699      0.251563
O       9.61970     15.34544     11.56499         0.053670      1.148817     -0.641287
O       9.61886      7.80712      2.85940         0.156442     -1.450974     -0.532415
O       9.65439      7.65207     15.70261        -0.187348      1.031571     -0.110760
O       9.68904      7.71223      7.14112        -0.166897     -0.084297     -0.610054
O       9.58919      7.77409     11.55918        -0.032219     -0.098140     -0.712638
O       9.60108     11.58813      2.72297         0.450388     -0.027161     -0.604067
O       9.65775     11.60738     15.87022        -0.334235     -0.319610     -0.459448
O       9.65042     11.59351      7.30148        -0.208200     -0.241524     -1.267786
O       9.72556     11.62637     11.51908        -0.351497     -1.643816     -0.215812
