  # total energy = -7845.86600229 
CRSYTAL
PRIMVEC
    15.6080000000000005    0.0000000000000000    0.0000000000000000
     0.0000000000000000   15.6080000000000005    0.0000000000000000
     0.0000000000000000    0.0000000000000000   16.6239999999999988
PRESSURE
2.68833 3.58385 -1.14017 -0.521511 -0.130309 -0.14034
PRIMCOORD
320 1
Pb       3.55996      4.02091      4.08283         1.408645     -0.745859     -0.087455
Pb       3.77712      4.00608      0.24110         0.481746      0.333325     -0.350540
Pb       3.73431      0.04362      4.27054         0.319444     -0.674411     -0.653492
Pb       3.88300     15.43036     16.27952        -0.184687      0.223729      0.820746
Pb      15.48162      3.96251      4.13868         0.082307      0.081641      0.733931
Pb       0.09881      3.73137     16.44895        -0.966712      0.301573      0.039001
Pb       0.14096     15.42758      4.34206        -0.092283     -0.057224     -0.012318
Pb       0.16394     15.37744      0.05005        -1.643102      1.020166     -0.888719
Pb       3.93549      3.89196      8.34419        -0.176887     -0.895166      0.860286
Pb       3.87041     15.52761      7.95617         0.791088      0.689575      1.639527
Pb      15.53880      4.04495      8.33019        -0.112675     -1.362544     -0.283830
Pb       0.15002      0.31592      8.53920         0.244074     -0.538350     -0.899405
Pb       4.19136      3.79932     12.45534        -0.620611      0.235229      0.342337
Pb       3.90988     15.42021     12.35197        -1.120755      0.361664      1.327828
Pb      15.48432      3.72098     12.43002        -0.126243     -0.166638     -0.051567
Pb       0.14077      0.28827     12.52394        -0.607378     -1.447614      0.317110
Pb       3.72809      7.69038      4.31195         0.190001     -0.254351     -0.507700
Pb       3.76269      7.96750      0.09226        -0.825762     -0.362653      0.340955
Pb      15.37125      8.08117      4.24069         0.698520     -2.421083      0.585364
Pb      15.45330      7.86597      0.27523         0.215810      0.310801     -0.290795
Pb       3.66883      7.90299      8.20832         0.014715     -0.681160      0.149318
Pb      15.54348      7.53909      8.40710         0.081217      0.436271     -0.315089
Pb       4.04271      7.95895     12.39680        -0.829999     -1.029823     -0.709407
Pb       0.09074      7.67555     12.70071        -0.682909      0.323929      0.522406
Pb       4.13668     11.47051      3.86336        -0.874330      2.326932      2.292622
Pb       4.10930     11.59011     16.38580        -1.380826      0.431747      1.154102
Pb      15.36058     11.69536      4.41543         0.974430      1.098250     -0.077597
Pb       0.00579     11.68063      0.16796         0.330312      0.008730     -0.346122
Pb       4.13526     11.68286      8.58002        -0.442519      0.256013     -0.667474
Pb       0.04032     11.37281      8.65196        -1.328680      1.405116     -1.514855
Pb       3.48368     11.74393     12.27587         1.942608      0.100619      0.304628
Pb       0.01390     11.64192     12.41321        -1.474047      1.149337      0.849308
Pb       7.71738      3.99611      4.42835         0.573131      0.137551     -0.617364
Pb       7.87212      3.68681      0.20281         0.349536      0.436778     -0.159741
Pb       7.35851      0.19619      4.01961         1.251792     -0.608473      0.947419
Pb       7.87390      0.26741      0.22000         0.445647     -0.049585     -0.140227
Pb       8.10793      3.88321      8.74752        -1.638437      0.570013     -0.724655
Pb       7.86053      0.21603      8.35403        -0.995381     -0.665570     -0.399148
Pb       7.84915      3.59113     12.69615        -0.179567      0.450819     -0.154655
Pb       7.59572     15.29478     12.38755         1.338861      2.170029      0.226957
Pb       7.91097      7.72764      3.96129         0.803971      0.642064      0.389738
Pb       7.97227      7.81237     16.35017        -0.276711      0.308627      1.301736
Pb       7.89227      7.58212      8.15673         0.001627      0.129694      0.442883
Pb       7.68735      7.63745     12.50029         0.283124     -0.204836     -0.437329
Pb       7.67236     11.82440      4.31736         0.355539     -0.701610      0.568633
Pb       7.56059     11.34262     16.60866         0.177742      0.567022      1.096563
Pb       7.55382     11.91936      8.66032         1.744479     -0.183656     -0.688285
Pb       7.60765     11.97359     12.50728         0.270438     -1.266001     -1.210062
Pb      11.97057      4.12993      4.01328        -1.640104     -1.068693      0.802358
Pb      11.72588      3.80665      0.17481         0.107863     -0.085986     -0.037016
Pb      11.52208      0.20865      3.82695         0.287813     -1.283682      0.440209
Pb      11.59941     15.50245     16.57317         0.650859     -0.430495      0.868957
Pb      11.56182      3.76527      8.20374         0.565408      0.347437      0.220144
Pb      11.39131      0.03045      8.38092         0.366074     -1.217203     -1.214414
Pb      11.79696      4.12781     12.59615         0.126368     -0.695862     -0.792818
Pb      11.79315      0.22219     12.37706        -0.295296     -1.483691      0.693820
Pb      11.88770      7.96912      3.92580        -1.815828     -1.549091      0.084969
Pb      11.43594      7.75134     16.52555         0.981507      0.317983      0.536350
Pb      11.29186      7.85379      8.02761         1.241563      0.107420      1.908322
Pb      11.83822      7.87105     12.21820        -1.209513      0.599804      1.459832
Pb      11.64562     11.89814      4.34873        -0.214869      0.746965      0.422273
Pb      11.56578     11.76916      0.33114         1.396463      0.755868     -1.175923
Pb      12.02986     11.28516      8.25002        -0.757294      2.235010      1.547197
Pb      11.62106     11.77329     12.40563         0.475721     -0.156414     -0.124079
Ti       1.94948      1.94053      2.03000        -1.154569     -0.836276      2.282487
Ti       1.97096      1.98590     14.56996        -1.320045     -1.146025     -1.235063
Ti       2.00360     13.80116      2.12761         1.144484     -3.122816      1.943099
Ti       1.98568     13.44689     14.67530        -1.152935      1.541764     -0.608057
Ti      13.77126      1.92707      2.23187        -0.099273     -2.221551     -2.297166
Ti      13.52509      1.84461     14.76961         3.306626     -0.440012     -0.196684
Ti      13.69377     13.69592      2.25213        -0.896644      0.803381     -1.055880
Ti      13.69373     13.54610     14.65674        -0.258112      0.915560     -1.402378
Ti       1.94044      1.92651      6.30776        -2.369055     -1.242279     -0.483998
Ti       2.10115     13.46714      6.28087        -1.298648      0.205135     -0.631052
Ti      13.53393      1.88265      6.40410         0.703085     -0.560647     -0.003192
Ti      13.81978     13.73807      6.44145        -1.041693     -1.386314      0.148517
Ti       2.09630      1.89985     10.62092        -1.224814     -1.159957     -1.608226
Ti       1.79226     13.57345     10.26474         0.675497      1.213889     -0.144096
Ti      13.58196      1.79708     10.37940         1.918903      1.740778      0.929483
Ti      13.59515     13.61859     10.46349         0.641561     -1.305108     -1.069002
Ti       1.89498      5.75640      2.22276        -1.010279      1.800865      0.700150
Ti       2.11254      5.76443     14.62553        -2.550501      1.188928     -0.235357
Ti      13.72427      5.73812      1.96125        -1.374183      1.469412      0.235545
Ti      13.64615      5.76361     14.69584         1.210206      0.004647      0.383157
Ti       1.98723      5.61009      6.30303        -2.258025      1.743568      0.830127
Ti      13.52818      5.94365      6.55088         0.579913     -2.779331     -1.418920
Ti       1.79114      5.82212     10.70141         2.024184     -0.373618      0.220755
Ti      13.57327      5.86978     10.56592        -1.521418     -1.415099     -1.154515
Ti       2.01730      9.71216      2.43876        -1.390990      0.969691     -2.298548
Ti       1.86501      9.64858     14.56529        -1.256628      1.006285      1.333654
Ti      13.62854      9.97448      2.35073         1.629301     -3.311224     -2.056049
Ti      13.66121      9.84473     14.77919        -0.977304      0.238390     -0.525805
Ti       2.12187      9.76108      6.22200        -0.576199      0.360492      1.975518
Ti      13.72853      9.67631      6.32815        -0.936472      1.689620      0.599357
Ti       1.84390      9.67546     10.36537         1.181445     -1.165470     -0.553794
Ti      13.77375      9.69476     10.68774        -3.526608      0.498032     -0.492198
Ti       5.65199      1.99576      2.00752         2.577630     -0.267158      1.316992
Ti       5.76109      2.09360     14.66671         0.712534     -0.383761     -0.000792
Ti       5.96164     13.54364      2.11733        -2.023746     -0.276873      0.715864
Ti       6.06795     13.81949     14.77936        -1.996961     -0.206809     -0.337140
Ti       5.70225      2.09595      6.17978         2.253614     -3.188039      0.264709
Ti       5.91179     13.52677      6.34226         0.582918      1.036029     -1.659676
Ti       5.86571      1.95245     10.62387        -0.292031     -1.662307     -2.344054
Ti       5.76170     13.68010     10.62642        -0.901481     -0.911778     -0.666702
Ti       6.05202      5.69710      2.20218        -1.141582      0.024192     -0.607327
Ti       5.97265      5.86246     14.89583        -1.366261     -0.655884     -1.543543
Ti       5.73083      5.74652      6.47179         3.773527      1.269711     -1.217199
Ti       5.83011      5.79863     10.32804         0.025420     -0.029941     -0.494376
Ti       5.92744      9.48287      2.21642         1.136883      1.094650      0.213180
Ti       5.72219      9.75497     14.37347         0.682657     -0.391653      0.576784
Ti       5.94836      9.64236      6.40788         1.403746      1.141316     -1.700612
Ti       6.00274      9.64803     10.38453        -0.223530      1.750392     -0.633213
Ti       9.72192      2.06547      2.20172        -0.303506     -1.001759      0.067747
Ti       9.79664      1.83165     14.71298        -0.936805     -0.316883      1.755363
Ti       9.52265     13.51308      1.83844         2.334270      2.844373      1.032896
Ti       9.71778     13.50454     14.54791         3.219067      3.236656     -0.984418
Ti       9.68438      1.90168      6.14308         0.798528      0.583343     -2.360062
Ti       9.78546     13.69158      6.32205         0.023170     -0.396263      1.459915
Ti       9.80130      2.01301     10.69818        -0.998385     -0.491284      0.277997
Ti       9.86185     13.74721     10.45714        -0.990237     -1.944042      0.263224
Ti       9.80091      5.77086      2.08093         0.774460      1.020739      0.385395
Ti       9.78521      5.70526     14.67399         0.845352     -0.626034      0.689602
Ti       9.81171      5.79948      6.30346        -2.746049     -2.264652     -1.194060
Ti       9.69787      5.83625     10.57506         0.479306      0.174669     -0.291873
Ti       9.83013      9.96801      2.13575        -1.560171     -3.700614      2.348831
Ti       9.70038      9.92949     14.48397         2.056194     -0.833360     -1.453668
Ti       9.72285      9.95769      6.35756        -1.183387      0.181520     -1.538685
Ti       9.75522      9.76612     10.40180         0.969385      1.332680      0.269872
O       1.85730      2.16653      0.35223         1.530474     -0.907734     -3.988913
O       1.81775      2.09309     12.62224         0.245425     -0.992609      2.465742
O       1.89959     13.73582      0.34697         0.346475     -0.306351     -0.692428
O       2.05366     13.57249     12.86113         0.086676     -1.035671     -0.318162
O      13.82674      1.53952      0.42975        -0.985282      1.594538     -0.302321
O      13.86522      2.08258     12.86295        -1.167469     -0.646514      0.830505
O      13.70630     13.61041      0.39953         0.896975     -0.131110     -0.295418
O      13.62896     13.42009     12.69887        -0.012445      0.287864      1.479164
O       1.81944      1.87674      4.45329         0.798390      0.268599      0.697417
O       2.08497     13.86940      4.40166         0.048390     -0.524158      1.151974
O      13.56596      1.88805      4.64212         0.445621      0.034392     -1.349405
O      13.44437     13.51038      4.54584         0.627541     -0.120360     -0.204156
O       1.99868      1.70517      8.73923         0.178642      0.526437     -0.267957
O       1.74077     13.34692      8.46346         0.312294      1.079474      0.954809
O      13.89389      1.80126      8.65618        -1.241139      0.013203     -0.104070
O      13.66145     13.29820      8.56010         0.459592      1.310268      0.756578
O       2.18687      5.91551      0.47599         0.373438     -0.331737     -2.145044
O       1.84025      5.83292     12.65447         0.199942      0.173295     -0.836210
O      13.29180      5.66860      0.23667         0.984180      0.418104     -0.209920
O      13.65848      5.69697     12.81064         0.745068      0.111734     -0.477938
O       2.02314      5.77523      4.24433        -0.249182     -0.619698      2.128023
O      13.74485      5.33536      4.63881        -0.319515      2.175539      1.070682
O       1.87036      6.02187      8.21443         0.737698      0.058984      1.634312
O      13.50301      6.07316      8.57380         0.138233     -0.661153     -0.370050
O       1.79448      9.66202      0.46940         0.640025     -0.440661      0.339883
O       1.97175      9.50566     12.80969        -0.309953      1.036048     -1.702347
O      13.95386      9.90721      0.43547        -0.140110     -1.165423     -0.621059
O      13.68832      9.78910     12.60835         0.255584     -0.351651      1.065136
O       2.20326      9.74836      4.53203        -0.477208     -0.361709     -2.481426
O      13.45437      9.60954      4.43960         0.952557      0.537294     -0.405246
O       1.72482      9.71104      8.49357         1.260611     -0.920317      1.158158
O      13.77217      9.80489      8.69956         0.104092     -0.850425     -1.270938
O       6.01609      1.95827      0.20515        -1.501434      0.153481      0.385136
O       5.87720      2.08407     12.84405        -1.059412     -0.297976     -0.768117
O       6.25801     13.68685      0.29872        -0.870571     -0.239583     -1.796897
O       5.74102     13.84914     12.62588         0.356524     -1.677534      2.051063
O       5.67250      1.74291      4.41049         0.488099      0.959729     -0.198791
O       6.11219     13.60440      4.37664        -0.785622      0.032323      0.610102
O       5.76574      1.87438      8.79244         0.293752      0.408684     -0.273436
O       5.82688     13.58150      8.85781         0.607486     -0.179931     -2.370193
O       5.64863      5.49302      0.39734         0.625445      0.513336     -0.706713
O       5.92993      5.90244     13.04220         0.059030      0.209822     -0.595714
O       6.28596      5.90039      4.64751        -0.838836     -0.235547      0.657506
O       5.66215      5.64706      8.54059         0.129203      0.348164      0.526074
O       5.69511      9.78003      0.39292         0.250386     -0.736974     -0.364078
O       5.85452      9.46321     12.58477         0.276232      1.001112      0.921022
O       5.97687      9.66107      4.38298         0.338512     -0.573766      1.148880
O       6.01576     10.13139      8.54554        -0.922680     -1.485218      1.301099
O       9.78351      1.61662      0.28915        -0.492746      1.379784      0.252667
O       9.73545      1.97298     12.95132         0.331205      0.205666     -1.510083
O       9.33037     13.20931      0.08976         0.796363      1.138477      0.058984
O      10.02713     13.44153     12.62683        -1.162624      0.813277      2.176570
O       9.79075      1.94428      4.13941         0.014162     -0.395020      2.571007
O       9.75018     13.38259      4.60523        -0.213914      0.522939     -1.771095
O       9.46144      2.02735      8.91994         1.424639     -1.242826     -0.539766
O       9.51069     13.97223      8.72852         0.342521     -0.499140     -0.900965
O       9.91788      5.81600      0.24784         0.208220      0.347751     -0.836149
O       9.49376      5.49547     12.94290         0.181166      0.569060     -0.112396
O       9.79921      5.52926      4.52922        -0.724526      0.649157      0.059673
O       9.84003      5.73729      8.77414         0.363953     -0.603005     -0.721641
O       9.66266      9.69213      0.38230         0.770555      0.015507     -1.532256
O       9.87830      9.89008     12.66485        -0.867920     -0.353965      1.425655
O       9.72104      9.70608      4.36225         0.601287      0.468909      1.517864
O       9.88257      9.78998      8.61576        -0.734474     -0.616830     -0.649143
O       3.91383      2.01521      2.26639        -1.245682      0.055576      0.003887
O       3.77694      2.07363     14.69193         0.826268     -0.377748      0.815160
O       3.89707     13.45677      2.29370         0.166961      0.458342     -0.386015
O       3.94839     13.50067     14.97544         1.618878      0.471720      0.216736
O       0.14053      1.69683      2.05264        -1.828624      0.370945      2.077977
O       0.05873      1.79820     14.91698         0.735586      0.629119      0.048984
O      15.56395     13.70078      2.61830         0.761158     -0.304767     -0.438918
O       0.04954     13.40119     14.87405        -0.087208      0.862113      0.151183
O       3.94503      1.83292      6.40388        -2.111758      0.120119      0.711941
O       3.92525     13.62779      6.68434        -0.123271      0.322731     -0.418846
O       0.00017      1.98704      6.68255         0.258842      0.017688     -0.108337
O       0.12449     13.49071      6.20676        -1.661496      0.226135      0.054042
O       3.86479      2.00936     10.76283         1.814094     -0.501250      1.101338
O       3.81351     13.36827     10.39530        -0.480996     -0.083682      1.499700
O       0.05811      1.77966     10.74946        -1.183725      0.294445     -0.318688
O       0.00207     13.61885     10.77937        -0.092619     -0.150388     -0.407180
O       4.20597      5.72825      2.66645        -1.346790      0.213838     -0.158140
O       3.86533      6.19521     14.99242         0.068828     -0.929231     -0.497019
O      15.60501      5.67505      2.34564         0.395198      0.560290     -0.385724
O       0.05967      5.83979     14.94447         0.303870     -0.024948     -0.154659
O       3.92806      5.65963      6.34617        -1.183051      0.779622      0.050337
O       0.03531      5.43166      6.52489        -0.993979      1.515381     -0.443578
O       3.87191      6.12686     10.44690        -0.950167     -1.044394      0.968367
O      15.39269      5.86397     10.27540         4.322360      0.013981      1.163603
O       4.01403      9.61757      2.71532        -0.685317     -1.890321     -1.981949
O       3.79148      9.88669     14.64278         2.169577     -1.129819      0.442929
O       0.02515      9.58105      2.74371        -0.529315      0.969482     -0.927536
O      15.50224     10.00226     14.60919         1.989263     -1.544830      0.319483
O       4.15199      9.67930      6.53268        -3.272833     -0.708421      0.561494
O      15.51921      9.76925      6.24831         1.643345     -0.320970     -0.020577
O       4.03094      9.83080     10.50411        -1.702828     -1.360108      0.162920
O      15.52961      9.52303     10.48051         3.348625      0.352964      0.614893
O       7.79705      1.97503      2.35676        -0.366726     -0.803664     -0.707328
O       7.65439      2.03143     14.91597         1.465487      0.049370     -0.182590
O       7.86506     13.13124      2.41026        -1.311375      1.166304     -0.274906
O       7.89206     13.61006     14.45952        -2.209045      0.088931      0.085284
O       7.90449      1.96608      6.27775        -1.550000      0.350775      0.620745
O       7.70981     13.24065      6.59237         0.799575      0.921374      0.310401
O       7.70204      1.82832     11.05667         0.764095      0.043200     -0.674456
O       7.86120     13.57884     10.83566        -1.446923     -0.056626      0.317338
O       7.93885      5.54296      2.36417        -0.715160      0.664196      0.294323
O       7.75845      5.60062     15.23309         0.875739      0.255498     -0.753514
O       7.80651      5.36666      7.04784         0.362998      1.712709     -1.737655
O       7.80548      5.66177     10.54664        -2.545107      0.364207      0.390843
O       7.86207      9.76411      2.37614        -0.144462      0.189442     -0.498961
O       7.85168      9.76117     14.96788         0.304948      0.453457     -1.447370
O       7.79677      9.87380      6.81049         1.509673     -0.139813     -1.002370
O       7.87232      9.88675     10.62814        -0.326482     -0.304722      0.329125
O      11.78562      1.92912      2.32403         0.218769      0.321784     -0.111867
O      11.72283      1.70152     14.90832         0.576376      0.332489     -0.404946
O      11.64226     13.56782      2.02930        -0.789899     -0.343820      0.511999
O      11.76918     13.70114     14.91749        -0.202117     -0.411457      0.183322
O      11.53750      1.55377      6.58687         1.072857      0.731507      0.621148
O      11.60422     13.74357      6.55984         0.457148      0.202471      0.573695
O      11.75410      2.15505     10.57392        -1.543263     -1.651037      0.564744
O      11.69000     13.69861     10.56988         2.221026      0.586184      0.150369
O      11.71636      5.73599      2.32800         1.279067     -0.991109      0.597626
O      11.75560      5.33553     14.51907        -1.662542      1.962850      1.378480
O      11.56636      5.96309      6.63175         3.001685     -0.576020     -0.209159
O      11.62511      5.91057     10.94338         0.222965     -0.624561     -0.020316
O      11.83288      9.62977      2.33246        -1.727751      0.467828     -0.389101
O      11.78191      9.82102     14.75406        -1.154037     -0.870974      0.581572
O      11.70263      9.76743      6.62970        -0.502206     -1.970782     -0.928624
O      11.76427      9.36713     10.47353        -0.634603      0.710209      0.658574
O       1.86949      3.84654      2.17677         1.238398      0.334757      1.390216
O       1.70666      3.92102     14.60033         1.522803      0.382623      0.909331
O       2.08451     15.55300      2.43972         0.133522      1.774307     -0.463727
O       2.19829     15.49604     14.79533        -1.075223      1.297473      0.219733
O      13.76572      3.86968      2.44585         0.060505     -1.634420     -0.405225
O      13.72493      3.83863     15.13819         0.048697     -1.865115     -0.658330
O      13.58391     15.49357      2.43752         0.059205      1.337460      0.913552
O      13.91851     15.50266     14.83905        -0.996597      0.413547     -0.326479
O       1.94608      3.83612      6.74384         1.171590     -0.692388     -0.670592
O       1.76839      0.02630      6.53363         1.189522     -0.127358      0.125843
O      13.48267      3.69484      6.70187        -0.657094      1.122621      0.979604
O      13.68944     15.48111      6.69377         0.536965      0.748305      0.058450
O       2.06073      3.69712     10.70236        -0.987669      5.189787     -0.681831
O       2.12589     15.35678     10.88406        -0.822222      0.742148     -1.044583
O      13.52697      3.92827     10.62435         1.004429      0.019428      0.187142
O      13.63113     15.56958     10.88672        -0.257856      0.414225     -0.622822
O       2.00416      7.70290      2.42027         0.433158      0.060084      0.656521
O       1.81585      7.84636     14.83606         0.162717     -0.880025      0.309866
O      13.61884      7.59572      2.27532         0.686464      0.491338      0.526697
O      13.70235      7.56467     15.13204        -0.542885      1.723143     -0.580923
O       2.02192      7.87431      6.30795         0.371938     -1.108140      0.502183
O      13.75105      7.68818      6.42120        -0.114116      0.674213      0.056801
O       1.86094      7.84946     10.88984        -0.066353     -1.577372     -1.207692
O      13.65438      7.70327     10.93769         1.078097      0.013710     -0.401901
O       1.76830     11.52953      2.57716         0.842442      0.250958     -0.347536
O       1.92166     11.69323     15.06148         0.755195     -1.969150     -0.305426
O      13.60348     11.65727      2.27032         0.231653      2.418498      1.138097
O      13.72082     11.64444     14.94783        -0.804406      0.457795      0.140079
O       2.04577     11.66170      6.46963         0.044507     -0.964402     -0.321745
O      13.58038     11.53908      6.43925         0.177375      0.181613     -0.151126
O       1.85082     11.54001     10.67457        -0.624052     -0.044582     -0.079072
O      13.75884     11.67962     10.66380         0.030881     -0.589150      0.273073
O       5.97525      3.77698      2.53256        -0.579781     -0.454222     -0.353090
O       5.58335      3.91376     14.69027         0.225811      1.196658      1.012542
O       5.71756     15.46842      2.41366         0.744825      0.610221     -0.686316
O       5.81115      0.03380     14.65863        -0.012937     -1.406701      0.978424
O       5.68532      3.87154      6.46130         0.157356     -0.280143      0.060160
O       5.95207     15.57993      6.52398        -0.267339     -0.070664      0.288071
O       5.76811      3.78282     10.61345        -0.277719      2.994426      0.775242
O       5.49899     15.56656     10.77316         1.588278      0.078379     -0.404165
O       6.33057      7.58431      2.05446        -1.190004      1.274498      0.740171
O       6.21457      7.91303     14.75473        -1.339291     -0.468682      0.576279
O       6.07455      7.74529      6.78908        -1.094917     -0.415650     -0.477561
O       6.05079      7.73620     10.58940        -0.255194     -0.043518      0.045184
O       5.67270     11.60140      2.30264         1.636336      0.366733     -0.663310
O       5.83109     11.65820     14.78884         0.935144     -0.235630     -0.437548
O       5.66473     11.72247      6.43349         0.211482     -0.740216      0.240716
O       5.80832     11.66574     10.81617         0.800616      0.025614      0.319590
O       9.73200      3.90183      2.22482         0.765664     -1.917952     -0.501686
O       9.98213      3.63354     15.34235        -1.644727      0.966864     -1.600331
O       9.72246     15.56256      2.14592        -0.545797     -2.124607      0.253143
O       9.81256     15.50621     14.95787        -0.865833     -0.248078     -0.462109
O      10.01993      3.78736      6.50089        -0.514468     -1.177671      0.482029
O       9.52969     15.53947      6.75275         0.015754      1.521560     -0.709965
O       9.53554      3.87019     10.83135         0.807313     -1.382900      0.308276
O       9.65263     15.53952     10.87391         1.009490      2.706328      0.429241
O       9.99357      7.56799      2.46086        -1.090206      1.502538     -0.207864
O       9.75804      7.66838     14.74616        -0.021950     -0.198707      0.171508
O       9.51171      7.61499      6.42964         0.012015      1.472787      0.507790
O       9.54347      7.62785     10.63419         0.180412      2.147316      0.867169
O       9.93488     11.69407      2.20951         0.276061      0.567803      0.519375
O       9.95003     11.77276     14.76058        -0.523011     -3.161387      0.005277
O       9.95052     11.71043      6.51470        -0.448839     -0.995477      0.224218
O      10.01239     11.77025     10.57809        -0.682584     -1.939820     -0.105386
