  # total energy = -7838.91610716 
CRSYTAL
PRIMVEC
    15.6080000000000005    0.0000000000000000    0.0000000000000000
     0.0000000000000000   15.6080000000000005    0.0000000000000000
     0.0000000000000000    0.0000000000000000   16.6239999999999988
PRESSURE
2.8413 2.48223 -1.76923 0.241006 0.053976 -0.179965
PRIMCOORD
320 1
Pb       3.52142      3.45607      4.25275         0.971100      0.687499     -1.122302
Pb       3.74890      3.81448     16.53891         0.306862      2.439698      1.265394
Pb       3.71492     15.38282      3.89599        -0.273785      0.762629      0.095165
Pb       3.96321      0.06197      0.08676        -0.033903     -1.292078     -0.183045
Pb      15.31715      3.86917      4.06089         0.146417     -0.151815      0.605744
Pb       0.00895      4.05390     16.39686         0.546250     -0.792211      0.301540
Pb       0.01152      0.01737      3.96534         0.849632      0.704096      0.277706
Pb      15.32857      0.09630      0.16131         0.479504      0.227943     -0.720202
Pb       3.89738      4.10872      8.20861        -0.053672     -0.998089     -0.161474
Pb       4.04542     15.58858      8.19731        -0.925037     -0.522338     -0.237427
Pb       0.26010      3.66328      8.65830        -1.706475      0.323206     -1.030906
Pb       0.22365     15.49404      8.68095         0.633519      1.103594     -1.014290
Pb       3.81891      3.93099     12.73509         0.311081      0.657788     -0.873261
Pb       3.86690     15.45790     12.84225         0.867939      0.595856     -0.657318
Pb      15.55072      4.21256     12.44880        -0.133894      0.309288      0.169249
Pb      15.42120     15.46054     13.04093         1.089264      1.151738      0.048912
Pb       3.90292      7.36334      4.05554         0.761159      0.890552      0.092006
Pb       3.91611      7.46147     16.51356        -0.931838      0.390629      0.222150
Pb      15.53717      7.42802      4.50506        -0.373589      0.661205     -0.169833
Pb      15.46201      7.71371     16.58919         1.367797      0.612718      0.884842
Pb       3.97763      7.64373      8.14092         0.285452      0.489023     -0.440082
Pb      15.54147      8.02530      8.26572        -1.443184     -0.360591     -0.350042
Pb       3.99270      7.70136     12.16782        -0.172930     -0.949408      1.156520
Pb      15.25597      8.01226     12.42783         0.622739     -1.214939      0.271814
Pb       3.97114     11.65187      4.15610        -1.409093     -0.009556      0.057525
Pb       3.88727     11.45720     16.54349        -0.895856      1.000930     -0.005674
Pb       0.00404     11.79401      3.95293         0.455550      0.433204     -0.016448
Pb       0.13866     11.50833      0.09233        -0.344472      0.483081     -0.020106
Pb       3.85408     11.44902      7.86456         0.393125      0.452477      2.329625
Pb       0.16560     11.90843      8.61991         0.153210      0.254161      0.010148
Pb       4.06127     11.38719     12.44753        -0.720265      0.680501     -0.196926
Pb       0.09158     11.63717     12.73164        -0.137051      0.531007     -0.436900
Pb       7.49866      3.74471      4.18989         0.544774     -0.858631     -0.144298
Pb       7.66260      4.23465      0.15125         0.817343     -1.495635     -0.654950
Pb       7.64218     15.43507      4.46669        -0.847471      1.164084     -1.103119
Pb       7.66064     15.34295      0.08093        -0.058775      1.390441     -0.823409
Pb       7.92246      3.74787      8.36607        -0.145794     -0.844882      0.442147
Pb       7.72678     15.48939      8.17730         0.026834      0.940884      0.411051
Pb       7.65149      3.88180     12.45893         0.447222     -0.231078     -1.004676
Pb       7.80711      0.22072     12.31731        -0.079420      0.186616      0.405971
Pb       7.91349      7.85968      4.35464        -0.117453      0.195002     -0.924488
Pb       7.64018      7.55521      0.09337         0.465143      0.357018     -0.150133
Pb       7.61829      7.79164      8.20873         0.363619      0.350752      0.108013
Pb       8.05144      7.77586     12.12664        -0.970886     -1.254069      0.723220
Pb       7.98884     11.48763      4.25906        -0.015862      0.270219     -0.802986
Pb       8.12327     11.84070      0.05415        -1.449945      0.261992      0.114194
Pb       8.43779     11.59515      8.25159        -1.400628      0.236556      1.506631
Pb       7.47859     11.24351     12.28891         1.906887      1.096050      0.438480
Pb      11.41962      3.65485      4.50309         0.136908      0.936219     -1.358603
Pb      11.51333      3.94420      0.10525         0.086826      0.223215      0.465388
Pb      11.77574      0.13767      4.42546        -0.471807      0.261861     -1.106563
Pb      11.51440      0.11660      0.08273        -0.039809      0.046577      0.160962
Pb      11.79380      3.53764      8.38223         0.096745      0.085071      0.780702
Pb      11.96025     15.37209      8.64323        -2.158922      3.135193     -0.550773
Pb      11.65539      4.04190     12.32574        -1.036600     -0.114129     -0.119291
Pb      11.82607     15.53440     13.08700        -1.054560      1.240625     -2.321226
Pb      11.76287      8.00724      4.21124         0.607465     -0.659810     -1.120546
Pb      11.48309      8.04954      0.03185         0.111297     -0.992283      0.649441
Pb      11.76746      7.70688      8.26290         0.473749      0.386819     -0.030588
Pb      11.56440      7.97553     12.59846         0.345385     -0.423193     -0.741970
Pb      11.69601     12.09891      4.33133         0.422084     -0.412735     -0.709120
Pb      11.47749     11.84728      0.04399         0.913686     -0.270822     -0.410268
Pb      11.76725     12.29022      8.69003         0.484785     -2.822192     -0.453707
Pb      12.17417     11.96015     12.78468        -1.586525     -0.307316     -0.593024
Ti       1.84634      2.10846      1.90025         0.437010     -2.219341      2.262931
Ti       2.20922      1.88963     14.79347        -7.008008     -0.639373     -1.638934
Ti       1.85331     13.81443      1.75676         1.387289     -1.266401     -0.125010
Ti       1.93417     13.58711     14.75550         0.429766      1.265603     -0.852675
Ti      13.39920      1.99159      2.09415        -0.778931      0.516408     -0.528728
Ti      13.57776      2.16630     14.60472         2.220306     -0.839041      0.294511
Ti      13.51567     13.83578      2.09056         0.807469     -0.586285     -1.078152
Ti      13.61900     13.80331     14.81454         1.014357     -1.657420      3.077421
Ti       1.85959      1.87331      6.33192        -1.028311     -0.968172     -0.007648
Ti       1.86035     13.63225      6.37139        -0.047981      1.958165      0.040721
Ti      13.58341      1.87502      6.24899         2.659906      1.903655      0.618552
Ti      13.70152     13.93652      6.26671         0.489091     -1.388698     -1.294784
Ti       1.90073      1.96064     10.90293         1.693812      1.894246      1.184530
Ti       2.01084     13.70973     10.85968         1.019194     -0.568038     -1.459619
Ti      13.85306      1.98515     10.66109        -3.288820      0.993347     -1.064648
Ti      13.81584     13.85911     10.50291        -0.546944     -1.103486      2.333242
Ti       1.91940      5.92999      2.16860         0.960391     -0.583169     -2.184107
Ti       1.92519      5.92994     14.54260         0.958129     -1.057710      0.468977
Ti      13.69525      5.85608      2.05875        -2.584021      1.270876     -0.314031
Ti      13.68417      6.02206     14.73803        -2.406077     -1.395297     -1.921253
Ti       1.99442      5.76247      6.14519        -0.631521     -0.803135     -0.038975
Ti      13.51793      5.79663      6.25194         1.624356     -0.085807      0.103323
Ti       1.89944      5.88946     10.27563         0.938017      0.504516      2.223788
Ti      13.50031      6.04062     10.33847        -0.823844     -2.117777     -0.953899
Ti       1.87119      9.78233      2.21774         0.564757     -0.371526     -1.002792
Ti       1.73269      9.67765     14.41429         3.503819     -1.120343      2.440147
Ti      13.62679      9.95200      2.10143        -1.825498     -0.890132     -0.085145
Ti      13.44159      9.72720     14.78804         0.087388      4.283055     -0.562318
Ti       1.87152      9.71561      6.33123        -0.351660     -0.317788     -2.782495
Ti      13.75389     10.15036      6.10688        -1.240569     -1.449891      2.350089
Ti       2.08441      9.68122     10.29617        -0.100956     -1.143219      1.162706
Ti      13.67535      9.94032     10.50341        -1.010286     -0.963670     -0.622192
Ti       5.77008      1.86465      2.05704        -0.535610     -0.075341      4.037524
Ti       5.97034      1.99854     14.69134         1.117385     -1.958558     -1.168878
Ti       6.03351     13.64038      2.22603        -1.966806     -0.766870      0.774692
Ti       5.90723     13.65133     14.51157        -0.915272      1.282856     -0.644394
Ti       5.67832      1.82178      6.18313         2.361759     -0.288701     -0.458694
Ti       5.80917     13.36022      6.30960        -0.436390      3.682936     -1.665362
Ti       5.67961      1.85973     10.29419         0.810360      1.475851      0.862929
Ti       6.04772     13.59778     10.37129        -0.355521      0.548672      1.633200
Ti       5.95978      5.75031      2.23123        -1.776668      0.385193     -0.255169
Ti       5.97351      5.82043     14.61113        -2.405142     -0.300810     -0.769625
Ti       6.05292      5.74982      6.18185        -3.842658      0.640723     -0.338514
Ti       5.79556      5.86156     10.20642         0.396369     -2.776037      2.527175
Ti       5.70883      9.76429      2.17770         0.346424      0.139634      0.039340
Ti       5.79063      9.69110     14.59924        -1.829017     -1.566187     -0.334694
Ti       5.90313      9.63038      6.05325        -2.007948     -1.811815      1.683075
Ti       5.90704      9.63537     10.34859        -0.857537     -0.522883     -2.515242
Ti       9.56692      1.95582      2.28164        -0.100824      0.938674     -0.153504
Ti       9.80167      2.01842     14.53992        -5.282480      0.520938     -2.879348
Ti       9.75658     13.83343      2.10985        -0.176975      0.044972      0.006402
Ti       9.64767     13.64268     14.41700        -0.471571      1.330673     -1.377970
Ti       9.71775      1.77271      6.29759        -0.896200      0.928348      1.819796
Ti       9.65539     13.82211      6.17711         1.921683     -0.232178      0.034742
Ti       9.90428      1.75255     10.37789        -0.673096      3.454866      0.480963
Ti       9.84653     13.69067     10.58545        -0.911689     -0.048940      1.341861
Ti       9.73953      5.85571      2.31691         3.335160     -0.064195      0.010501
Ti       9.86363      5.92617     14.73337        -0.205947     -0.978961     -1.454686
Ti       9.75777      5.89003      6.25852         0.093364     -1.692955      0.100149
Ti       9.62470      5.80852     10.19514         0.955076     -0.212703      0.217158
Ti       9.74718      9.79283      1.99997         0.200575      0.468237      0.660660
Ti       9.50632      9.71991     14.56328         1.142022      0.762483     -0.756339
Ti       9.95255      9.71276      6.32414        -0.081373     -0.692226     -0.319332
Ti       9.86778      9.74674     10.37460         0.959507     -0.183838      0.416418
O       1.90121      2.02761      0.12208         0.472749     -0.253719     -1.088937
O       1.91917      1.99033     12.79712         0.164068      0.358405     -0.508084
O       1.76695     13.78296     16.55625        -0.051676     -0.591691      2.691096
O       1.68410     13.72073     12.65734         0.011264     -0.007688      0.054881
O      13.00116      1.93962      0.14116         1.267432      0.573317      1.493983
O      13.53300      1.92460     12.67565        -0.037805      1.289986      0.323929
O      13.51250     14.03205      0.06242        -0.424901     -0.590924      1.392486
O      13.83089     13.67418     13.04193         0.027741      0.000033     -4.045492
O       1.97068      1.80915      4.25334        -0.554926      0.354435      0.758745
O       1.70938     13.81209      4.55766         0.474340     -1.355691      0.063714
O      13.66414      1.77085      4.30573         0.028660     -0.011249      0.082206
O      13.58045     14.03734      4.18686        -0.243087     -0.523864      1.731993
O       1.77809      2.07389      8.32387         0.706351     -0.662214      0.028016
O       1.82383     13.76806      8.53776        -0.320171      0.426743      0.095091
O      13.87864      2.24102      8.54469        -0.131219     -1.071667     -0.807988
O      13.58464     13.75394      8.70514         1.290487     -0.367402     -1.118227
O       2.04428      5.51027      0.08318        -1.142908      1.258601      1.504403
O       2.16571      6.00696     12.77685        -0.560491     -0.771427      0.742236
O      13.91554      5.90305      0.07360        -1.603706      0.452137      1.266340
O      13.59832      5.84118     12.83567        -0.179361      0.227008     -0.038087
O       1.98702      5.69554      4.15635        -0.192673      0.929230     -0.507501
O      13.58188      6.01779      4.28901         0.231809     -0.277597      0.417601
O       1.94988      5.97873      8.45943        -0.081122     -0.679445     -0.542536
O      13.68900      5.81499      8.39336         0.055153      0.992323      1.334570
O       1.92620      9.78924      0.41811        -0.344092      0.947028     -0.599401
O       2.02535      9.68836     12.70385        -0.384472      0.151518     -1.800618
O      13.42920      9.96711      0.21540         0.873255     -0.124744      0.966466
O      13.35889     10.05967     12.90273         1.654171     -1.138094     -0.069965
O       1.74634     10.07987      4.56996        -0.343171     -0.457519     -0.247346
O      13.50635     10.05773      4.39893         0.133276     -0.430592     -2.396727
O       2.04510      9.32503      8.50677        -0.557949      1.622184     -0.286013
O      13.86137      9.74725      8.75958        -0.502651      0.092581     -0.949886
O       5.83881      1.66922      0.39418         0.382373      0.666066     -3.197648
O       5.69911      1.69043     12.93266        -0.341322      1.248943     -0.731093
O       6.14709     13.55201      0.47566        -0.730198      0.233453     -2.132902
O       5.76993     13.92721     12.69845         0.387928     -1.209782      1.544611
O       5.56854      1.96017      4.37211         0.458705     -0.364703      1.180558
O       5.69525     13.66146      4.37009         0.236378     -1.139551      1.710779
O       5.95701      1.92314      8.47980        -0.727802     -0.467294     -0.035227
O       5.67104     13.56260      8.65635         1.384394      0.538936     -0.665062
O       5.95546      5.73667      0.24595         0.172105      0.727536      0.739100
O       5.78007      5.75546     12.84887         0.656232     -0.221438     -0.300092
O       5.91893      5.81662      4.32297         0.268915      0.044264     -1.348042
O       5.89452      5.78564      8.46492        -0.394447      0.321043     -1.677810
O       5.53915     10.09977      0.34975         1.557184     -1.904828      0.411516
O       5.94355      9.36659     12.54988        -0.499086      2.145149      1.588596
O       5.75572      9.43184      4.31522         0.429462      0.699299     -0.307579
O       5.62705      9.44257      8.48909         0.697680      0.781333      0.517499
O       9.84220      1.99269      0.45254        -0.352874      0.636075     -0.607917
O       9.85954      2.14864     12.39557         0.474705     -0.228231      1.244666
O       9.42443     13.92151      0.00080         1.798987     -1.686641      1.142558
O       9.74276     13.74028     12.44102        -0.070024     -0.450588      3.244673
O       9.74289      1.71459      4.50898         0.373797     -0.246015     -0.953323
O       9.80479     13.84117      4.30966         0.056768     -0.111364      0.204522
O       9.92882      2.04565      8.39521        -1.592821      0.632104     -0.695972
O      10.03445     13.66926      8.70001        -1.560532     -0.343375     -1.522409
O       9.66802      5.99770      0.24016        -0.401320     -0.401671     -0.194116
O       9.89780      5.99665     12.85010        -0.089394      0.440201     -0.001652
O       9.91187      5.93081      4.40546        -0.868742      1.055914      0.019744
O       9.60524      5.61077      8.40739        -0.025052      0.861937     -1.083912
O       9.65626     10.05959      0.10995         0.064170     -1.768800      0.674022
O       9.42322      9.66522     12.47927         1.009409      0.328921      1.453616
O       9.60229      9.68099      4.43418         0.401582      0.420030      0.719461
O       9.75953      9.42651      8.47967        -0.211180      2.873140     -0.832278
O       3.77617      1.86374      2.26538         0.937419     -0.624510     -0.483683
O       3.84484      2.21534     14.92652         3.545815     -0.753974     -0.659212
O       3.73684     13.67646      1.81665        -0.267987      0.231210      1.005893
O       3.76029     13.88411     14.98762         2.220869     -1.035279     -0.846553
O      15.57591      1.73133      2.06150        -1.772509      0.830768      0.506544
O      15.50065      2.01567     15.02103        -2.028063     -0.344311     -0.766824
O      15.44123     13.79015      1.97629         0.223032      0.310288      0.582309
O       0.04402     13.89089     14.92252        -1.667776     -0.084327     -0.933354
O       3.98158      1.91125      6.62389        -0.717402      0.809056      0.063700
O       3.99061     13.52985      6.88900        -0.860261     -0.109630     -2.120169
O       0.03265      1.61984      6.36134        -0.795013      0.570979     -0.549159
O      15.55004     14.16146      6.52424         0.077221     -0.884704      0.135013
O       3.84776      2.19033     10.82213         1.072705      0.097344     -1.068302
O       3.79179     13.46068     10.98654         0.516204      0.263932     -0.524379
O      15.59443      1.87699     10.62790         1.722348      0.284586      0.052766
O       0.02444     13.60070     10.57757        -0.952808      0.677089      0.045247
O       3.86497      6.05357      1.91850        -0.727616     -0.895303      1.930074
O       3.92307      5.57891     14.77207        -0.570430      0.996432      0.792457
O      15.46653      5.80767      2.17379         1.857065     -0.115304      0.835132
O      15.48510      5.91620     14.81881         1.649082      0.100349     -0.785640
O       3.99152      5.67880      6.36773        -0.729941      0.739118      0.502082
O       0.07228      5.59997      6.12575        -0.152363      1.150273     -0.141028
O       3.89977      5.72985     10.77319        -0.116917      0.139427     -1.363284
O       0.19685      6.16639     11.18081        -1.068261     -0.575939     -2.159744
O       3.69533      9.63841      2.71400         0.093487     -0.047508     -0.707438
O       3.73608      9.44685     14.98792         0.433675      1.907591     -1.173862
O      15.43580      9.94005      2.36362        -0.084281     -0.286704     -0.250177
O      15.58462      9.90006     14.81892        -1.538011      0.221834     -0.017882
O       3.81265      9.76172      6.31986        -0.277848     -0.187290      0.149576
O      15.46145      9.74337      6.48137         2.479329     -0.328633      0.517608
O       4.02500      9.51470     10.63391        -2.180877      2.189311      0.041893
O      15.50112      9.48411     10.72730         2.044143      0.733877     -0.052458
O       7.65221      1.72549      2.63817         0.668169      0.913858     -0.524114
O       7.78982      1.83695     14.39514         0.018215      1.503898      1.177685
O       7.89330     13.44143      2.23402         0.041490      0.286344      1.155481
O       7.75128     13.74935     14.75341        -1.055259     -0.736006     -0.389878
O       7.82916      1.71295      6.21292        -0.610904      0.106627      0.872017
O       7.75781     13.88106      6.30826         0.213223     -1.422111      0.995076
O       7.92157      1.95002     10.43539        -0.709869      0.217937      0.285098
O       7.91058     13.91657     10.70142        -1.795711     -0.838845     -1.413217
O       7.93076      5.63456      2.05801        -3.350338      0.892435      0.853335
O       7.75935      5.99454     14.85944         1.432190     -0.476240      0.372160
O       7.73545      6.08403      6.48864         4.247085      0.213940     -0.395171
O       7.79786      5.77643     10.64940        -0.025155      0.160652     -0.132049
O       7.61037      9.71539      2.36739         0.154658      0.463599     -0.183664
O       7.60682      9.86020     14.57443         0.462136     -0.230366      1.038939
O       7.67560      9.58085      6.31090         1.759160      0.322944      0.348523
O       7.70933      9.74470     10.38878         1.678742     -0.282059      0.301555
O      11.50445      2.04343      2.65298         2.109036     -0.550090     -0.800371
O      11.43002      1.73592     14.79006         4.502065     -0.076137      0.014138
O      11.56804     13.38048      1.98268        -0.187284      2.012985      0.437857
O      11.60849     13.81749     14.54075        -0.665504     -0.452217      1.289152
O      11.71656      1.61778      6.35272        -0.187196      2.113537     -0.248186
O      11.63784     13.73494      6.57038         0.779883     -0.809738     -1.053892
O      11.75804      1.92175     10.04315         1.569401      0.506602      1.543257
O      11.73439     13.48461     10.74922         1.734992      1.006855     -0.517415
O      11.55157      5.73815      2.12089         0.651920      0.084157     -0.287117
O      11.70241      6.10817     14.94524        -0.385484     -0.382953      0.436745
O      11.73323      6.02393      6.39894        -0.800573     -0.716767      0.255505
O      11.59893      6.16830     10.28688         1.623465     -1.050419      0.544827
O      11.60757      9.78259      2.24676         0.424732      0.742062      0.121855
O      11.55683      9.83309     14.87500        -1.112648      0.273972     -0.324007
O      11.73199     10.04525      6.37328        -1.226149     -0.299699      0.151737
O      11.76896      9.61287     10.72484        -2.164284      0.566662     -0.562198
O       2.05653      3.80409      2.32424        -0.929497      1.999626     -0.369915
O       1.76927      3.90267     14.79570         0.302004      0.037076     -0.933828
O       1.95279     15.58346      2.13812        -0.679144      0.199562      0.155203
O       2.05361     15.58011     14.63004        -0.234775      2.214404      0.032501
O      13.50929      3.96322      2.11062         0.382815     -1.548207      0.494043
O      13.61535      3.97855     14.82081        -0.910659      0.389935     -0.072995
O      13.34339      0.05756      2.00507        -0.234653      1.900614      0.816290
O      13.58354      0.22089     14.66176        -0.075553     -1.289799      0.290399
O       2.17883      3.90818      6.15021        -0.833807     -1.344273      1.085543
O       2.28989      0.07254      6.21603         0.111634     -1.379619      1.655427
O      13.73315      3.86366      6.02376        -0.934661     -0.241383      0.717722
O      13.41052      0.07327      6.61893         0.982556     -1.165149      0.113150
O       1.74583      4.00968     10.56630        -0.182011     -0.162508      0.218204
O       2.17833      0.30279     10.63756        -0.606554     -4.667176     -0.623714
O      13.78689      3.88915     10.50480        -0.229879      1.683464      1.491643
O      13.71811      0.06125     10.86867        -0.290430     -1.770881     -0.908511
O       1.63501      7.75434      1.80492         0.214641     -0.562355      1.760723
O       1.59943      7.78629     14.91074         0.795355      0.158772     -0.146268
O      13.34826      7.81427      2.21496         0.842648      0.764468      0.020699
O      13.28127      8.03884     14.61492         1.648407     -3.544422      0.576914
O       1.87324      7.66004      6.05088         0.106765      1.554166      0.999742
O      13.65243      7.93849      6.52334         0.218097     -0.958453     -0.625766
O       2.22395      7.77290     10.58339        -0.833353      1.132488     -0.148573
O      13.45099      7.74242     10.83321         1.436223      1.084405      0.192568
O       1.74236     11.74848      2.12828        -0.024782      0.178266      0.830587
O       1.99023     11.76406     14.40217        -0.322824     -1.467440      0.574059
O      13.54315     12.04219      2.38025         0.478416     -3.838631      0.046549
O      13.58796     11.91888     14.92192        -0.272287     -0.473530      0.081187
O       1.71049     11.70742      6.74446         0.580303      0.103796     -0.222241
O      13.87553     11.98496      6.27192        -0.455646      0.456105      0.353995
O       1.76693     11.72431     10.50933         0.559689     -1.726321      0.173849
O      13.57212     11.74151     10.67355         0.928885      1.220250      0.322177
O       5.76995      3.75006      2.25265         0.770060      1.600278      0.018989
O       5.93279      3.83018     14.93109         0.410451      1.246457      0.056735
O       5.76272     15.44700      2.58690         0.404721      0.429158     -1.147470
O       5.75211      0.09899     15.00817        -0.270703     -2.160381      0.144044
O       6.18575      3.99984      6.27406        -0.557577     -3.670963      0.961000
O       5.93748     15.40183      6.38719        -1.418579      2.088742      0.748962
O       5.95588      3.98333     10.39533         0.008622     -1.512335      0.720027
O       5.88244      0.07233     10.78381        -0.918381     -0.297580     -1.723628
O       5.74130      7.60816      2.44152         1.009761      0.916498     -1.080977
O       5.65675      7.76240     14.97329         1.471307      0.908296     -0.228758
O       5.77090      7.65609      6.55009        -0.256652      1.985468     -0.723840
O       5.88604      7.66806     10.58992         0.166699      0.896268     -0.371373
O       5.35447     11.71953      2.50854         2.025996     -1.250903     -0.724951
O       5.60046     11.75117     14.57949        -0.045582     -0.904347     -0.174959
O       5.82422     11.58288      6.15303         0.236654     -1.217448      0.579640
O       6.09030     11.67096     10.44545        -1.206173      0.118581      0.917204
O       9.66802      3.89359      2.67953        -0.369747     -0.306448     -0.454574
O       9.87397      3.98935     14.51813        -0.221314     -0.391007      1.309872
O       9.70348      0.07695      2.19700         0.400845     -2.132452      0.268408
O       9.40913      0.07058     14.30986         2.021055     -1.067729      1.000626
O       9.77027      3.90730      6.13581        -0.409452     -0.008662      0.931992
O       9.78510     15.52956      6.88453        -0.566135      0.318692     -1.104636
O      10.01738      4.06384     10.50130        -0.069780     -0.541675      0.419533
O      10.01008      0.04665     10.41677        -0.285482     -2.400356      0.308412
O       9.85336      7.93620      2.31863        -1.063148     -0.833122      0.062977
O       9.57698      7.89985     14.87653         0.121489      0.929853     -0.022923
O       9.81934      7.77950      6.59396         0.091624      1.261081     -1.049418
O       9.62415      7.84161     10.39083        -0.029881     -0.039291      0.870889
O       9.82075     11.73387      2.16706        -1.342864     -0.587853      0.607564
O       9.60906     11.70071     14.75970         0.107149      1.058633     -0.531624
O       9.38608     11.91848      6.20311         1.371511     -2.170445      0.482484
O       9.70174     11.73701     10.46274        -0.285570     -1.722215     -0.670161
