  # total energy = -7844.01422631 
CRSYTAL
PRIMVEC
    15.6080000000000005    0.0000000000000000    0.0000000000000000
     0.0000000000000000   15.6080000000000005    0.0000000000000000
     0.0000000000000000    0.0000000000000000   16.6239999999999988
PRESSURE
1.85492 2.83354 -0.361097 0.399536 0.282715 0.31244
PRIMCOORD
320 1
Pb       3.45822      3.54307      4.20783         0.701819     -0.208154      0.826870
Pb       3.71243      3.86371     16.62203         0.431723     -0.549311      0.065939
Pb       3.62931     15.42204      3.92853         0.518526      0.460588      0.121569
Pb       3.99480      0.02649     16.55709        -0.828797      0.349107      0.665651
Pb      15.29593      3.87103      4.09095         0.798851      1.250541     -0.335948
Pb       0.08317      3.96167     16.31904        -0.709094      0.223448      1.453882
Pb       0.11238     15.52906      4.03387         0.296690     -0.214031     -0.420637
Pb      15.35296     15.56617      0.12628         1.107948      0.350052      0.951279
Pb       3.90596      4.10638      8.27236        -0.633062     -0.602213     -1.060118
Pb       4.03031     15.57276      8.07267         0.014927      0.218304      0.861861
Pb       0.24999      3.71953      8.66107         0.376917      0.513148      0.018152
Pb       0.32757      0.00450      8.72473        -1.009471      0.441088      0.694263
Pb       3.93630      3.92126     12.71951        -0.037467     -0.120797     -0.616139
Pb       3.84480     15.42849     12.75576         0.301551     -0.062999     -0.871184
Pb      15.53443      4.14772     12.40919        -0.104109     -0.214245     -1.484226
Pb      15.45367     15.54959     13.02174         0.884958      0.777969     -1.823921
Pb       3.90261      7.31325      4.16692        -0.163222      1.894354      0.667079
Pb       3.89787      7.57218     16.55798        -0.000404      0.145442      0.241862
Pb      15.50595      7.52033      4.56280        -0.057629      1.077876     -1.253675
Pb      15.38955      7.74141      0.02463         0.805311      0.912618      0.472457
Pb       3.89073      7.64687      8.07452        -0.720693     -0.307601     -0.381359
Pb      15.52725      7.89591      8.34363         0.338225     -0.138197     -0.381355
Pb       4.06136      7.82376     12.14765        -0.466975     -0.584616     -0.308355
Pb      15.30169      7.99701     12.51313         0.978652     -0.972997     -0.758706
Pb       4.11627     11.58457      3.98382        -0.817958     -0.741260      0.898774
Pb       4.03708     11.43627     16.42901        -0.416469     -0.261249      0.310584
Pb      15.49554     11.88626      4.01443         0.525989     -0.790094      0.073038
Pb       0.05857     11.56747      0.15823         0.269483     -1.146287     -0.211803
Pb       4.03064     11.48965      8.00373        -1.466203      0.507279      0.272133
Pb       0.13312     11.80954      8.74045         0.313741     -0.391375     -0.976422
Pb       3.95871     11.40733     12.37486        -1.598178      0.819133     -0.441169
Pb       0.04754     11.67328     12.68645         1.459611     -1.537847     -0.336825
Pb       7.53161      3.75757      4.29962        -0.202214      0.287493     -0.263888
Pb       7.70658      4.19699      0.19912         0.567262     -1.510854      0.095551
Pb       7.50211     15.48582      4.39818         0.849567     -0.247810     -1.470129
Pb       7.77057     15.46878      0.15052        -0.078238      0.913683      1.019868
Pb       8.04643      3.77149      8.52235        -1.480134      0.555509     -0.426607
Pb       7.72955     15.59466      8.22140         0.436652     -1.363990      0.916141
Pb       7.66398      3.74661     12.59142        -0.463697      0.592834     -0.674946
Pb       7.84533      0.17752     12.33216        -0.876577     -0.573405     -1.220167
Pb       7.97867      7.84217      4.30102        -0.470725     -0.701397     -0.432171
Pb       7.76330      7.53966      0.00321        -0.243531      1.220661     -0.201965
Pb       7.66161      7.74088      8.18412         0.219765     -1.443176     -0.401953
Pb       7.98981      7.70453     12.19014        -0.536497     -0.815876     -0.271896
Pb       7.99043     11.50815      4.27511        -0.366557      1.312769      0.000451
Pb       8.00501     11.76218      0.05488        -0.959793     -0.973158      0.262428
Pb       8.37294     11.64555      8.39544        -3.593147      1.260149     -0.981503
Pb       7.34850     11.30946     12.31842         1.466001      1.752318     -0.253036
Pb      11.49826      3.74616      4.42696         0.488094      0.483350     -0.336386
Pb      11.52159      3.87446      0.12278        -0.345033     -0.183033      0.331892
Pb      11.65302      0.16720      4.20724        -1.177326     -0.094984     -0.499392
Pb      11.43472     15.60785     16.55407        -0.529687      1.633374      1.114915
Pb      11.65273      3.48197      8.32664         1.932648      1.387039     -0.028411
Pb      11.83124     15.31765      8.61482         0.401075      1.374801     -0.093209
Pb      11.67526      4.12439     12.41517         0.000498     -0.678786     -1.369790
Pb      11.88482     15.59263     13.03959        -1.716932      1.290598     -1.947309
Pb      11.82605      8.04730      4.05309        -0.318711     -0.013694      1.083888
Pb      11.36310      7.99434      0.00248         0.263365      0.258480     -0.591873
Pb      11.54413      7.75825      8.14352         1.787347     -0.036096      0.264790
Pb      11.61736      7.98269     12.52183         0.840255     -0.182982     -0.840027
Pb      11.66086     12.16361      4.31905        -0.398260     -0.653399     -0.643867
Pb      11.49075     11.91774      0.13690         0.204661     -1.290967     -0.231206
Pb      11.87116     12.16985      8.65770         0.423103     -1.089349     -1.188101
Pb      12.18345     12.06332     12.83550        -2.327438     -2.723617     -1.251085
Ti       1.69873      2.03913      2.13443         1.394364     -1.226716     -0.113995
Ti       2.01218      1.84772     14.58533         1.464130     -0.167378      0.934347
Ti       2.05189     13.51347      1.86273        -1.295078      0.554312     -0.566443
Ti       1.87405     13.65347     14.67210         0.522139     -1.753229      0.408388
Ti      13.32542      2.13766      2.12495         1.015763     -1.767124      1.357166
Ti      13.68767      2.12075     14.62867        -2.721201      1.032861     -0.935263
Ti      13.55215     13.80732      1.95095        -0.452030     -1.401428      2.365297
Ti      13.53718     13.72161     14.87650         1.255159     -2.076360      1.423381
Ti       1.87096      1.84880      6.52036         1.919319      3.395433     -0.382336
Ti       1.80982     13.76355      6.50966         0.603389     -2.964238     -2.516813
Ti      13.86857      1.94361      5.94033        -1.265248      0.602503      4.521067
Ti      13.61864     13.82680      6.18855         0.633606      0.442681      1.617424
Ti       2.05670      1.94638     10.84241        -1.789153      0.361460     -2.277492
Ti       2.17725     13.64942     10.53239        -0.333136      0.770685      0.305275
Ti      13.62650      2.14679     10.50544         1.537437     -1.062171      0.683715
Ti      13.90014     13.77166     10.78637         0.393320      2.196841     -5.314571
Ti       1.94620      5.77574      2.04307        -3.348278      2.144113      0.181156
Ti       1.90181      5.70156     14.51610         0.709381      2.334982     -1.657335
Ti      13.47618      6.06835      2.04665         2.817780     -3.258008      1.052479
Ti      13.57988      5.84862     14.59646         0.655781      1.556811      4.022404
Ti       1.81947      5.76005      6.12930         0.967077     -1.369244      1.392484
Ti      13.57531      5.85636      6.34367         1.065075     -1.114048     -1.103686
Ti       1.98791      5.89046     10.60061        -1.146575     -4.536613     -1.980609
Ti      13.55486      5.92614     10.09579         1.783401      0.775417      1.348750
Ti       1.80792      9.69236      2.16200         0.314204     -1.822655     -0.260905
Ti       1.93887      9.45926     14.56696        -1.685853      2.565894     -0.061209
Ti      13.48901      9.84548      2.07135         1.995029      1.432612     -0.657412
Ti      13.55935      9.83869     14.69768         1.029211     -0.997919      0.447422
Ti       1.83501      9.66583      6.28678        -0.899202      0.387899     -1.016474
Ti      13.55601     10.00552      6.31364         1.330209     -0.635663     -0.838350
Ti       1.95737      9.58115     10.39943         0.116374      0.886686     -1.026741
Ti      13.50050      9.89631     10.30875         0.914324     -3.185374      2.594036
Ti       5.69587      2.04964      2.00508         0.904174     -1.626109      1.919431
Ti       6.11775      1.75400     14.78940        -1.024824      2.913975     -1.061205
Ti       5.82538     13.49329      2.15089         1.797662      1.185830      0.962316
Ti       5.81155     13.65617     14.58134        -0.445411     -1.028571     -1.071791
Ti       5.94582      1.88988      6.30002        -2.954898      2.227656     -0.766311
Ti       5.75779     13.57250      6.23369         0.255591     -1.498823      0.923627
Ti       5.79533      2.01615     10.16663        -0.439498     -1.308344      3.248551
Ti       5.96448     13.78654     10.40080         0.851267     -0.130851     -2.068766
Ti       5.82386      5.83352      2.11748         1.486918     -0.162731      0.521299
Ti       5.91894      5.67492     14.44077         0.428963      0.512419     -0.078832
Ti       5.90711      5.76140      6.09296         0.147754      0.478856      1.450320
Ti       5.87992      5.63012     10.37510         0.096348      1.494310     -1.280368
Ti       5.89594      9.64092      2.19070        -0.125683      1.757406      0.096965
Ti       5.76158      9.56228     14.39685         0.488537     -0.458126      2.214196
Ti       5.82977      9.56169      6.13781        -0.762283      0.650480     -1.026253
Ti       5.91830      9.66084     10.01207        -1.243400      0.033948      2.725876
Ti       9.45811      2.30234      2.44388         0.474406     -5.093956     -1.940768
Ti       9.75842      2.17573     14.37827         1.279169     -1.470469     -0.008151
Ti       9.61299     13.92489      2.07283         0.314385      0.186525      3.752729
Ti       9.44016     13.69653     14.38697         2.448941     -1.260107      0.499395
Ti       9.78817      1.93944      6.60280        -0.149783     -2.054169     -2.582316
Ti       9.73148     13.66705      6.43364        -1.152202     -0.068298     -1.729694
Ti       9.82762      1.84461     10.46049         0.505255     -0.662148      0.457078
Ti       9.84316     13.52162     10.70589        -2.232175      1.932543     -0.944932
Ti       9.84837      6.07253      2.18940        -1.151037     -2.489043      0.785570
Ti       9.86768      5.83357     14.49022        -1.486563      1.664852     -0.196951
Ti       9.87528      5.73429      6.20684        -1.210036      1.071327     -1.242624
Ti       9.75106      5.83683     10.11324         0.856214     -0.845193      1.692032
Ti       9.64940      9.93853      2.26647         0.111768      0.125392      0.518594
Ti       9.49076      9.75551     14.43667         1.231820      0.612891      2.498287
Ti       9.75124      9.58680      6.38744         0.460797      2.907690     -1.711341
Ti       9.81739      9.84623     10.35788         0.580005     -0.967365     -0.053247
O       2.17686      1.86540      0.28873        -0.807271      0.746828     -0.877146
O       2.00083      1.90996     12.66462         0.200857     -0.454164      1.908238
O       1.69539     13.61122      0.01450         1.114150      0.355513      2.022452
O       2.00193     13.98412     12.89655        -0.683451     -0.313152     -1.787079
O      13.28585      2.01116      0.38294         0.413468     -0.167801     -2.643231
O      13.83363      2.27148     12.81448        -0.770145     -1.038591      0.537458
O      13.23450     13.65711      0.11624         0.384695      0.373708     -1.561988
O      14.02353     13.37715     12.47396        -0.930986      0.690185      3.802758
O       1.71633      1.86235      4.29342         1.189292     -0.269766     -0.677257
O       1.83019     13.58171      4.53874        -0.498937      1.126562      0.557779
O      13.72114      1.63173      4.27036        -0.154986      0.357206     -2.557141
O      13.61801     13.76693      4.39343         0.368171      0.089052     -0.317705
O       1.95197      2.02662      8.38441        -0.917202     -0.051208      1.314819
O       2.09275     13.95418      8.75972         0.171722     -1.186059     -1.213888
O      13.81113      2.16726      8.75566        -0.556545     -0.012374     -0.508064
O      13.55414     13.79958      8.61310        -0.571475     -0.518796      0.468960
O       1.92807      5.69237      0.11973         0.276808     -0.319235     -0.381893
O       2.19298      5.88341     12.66580        -0.197883     -1.042253      1.279178
O      13.70713      5.89998      0.29482         0.766019     -0.353881     -1.104193
O      13.07556      5.79319     13.02682         0.297476      0.865381     -3.334292
O       1.95470      5.92592      4.31881         0.115553     -0.261397     -0.465683
O      13.63961      6.05059      4.46218        -0.708516     -0.142226     -1.087648
O       2.00084      5.69976      8.75946         0.071378      0.032766     -0.937296
O      13.53044      5.90559      8.31367         0.777585     -0.718183      1.696446
O       1.87460      9.80863      0.26004         0.723732      0.648685     -1.530384
O       2.07045      9.70094     12.70757        -0.039803     -0.564518      0.653359
O      13.70999     10.05043      0.14904        -1.336271     -0.987922      0.999341
O      14.04535      9.78054     12.76713        -2.113821      1.714295      0.884957
O       1.49068      9.61043      4.36753         0.972850      0.704641      1.634138
O      13.59294      9.75440      4.44291         0.137561     -0.059248      0.528991
O       2.13157      9.67953      8.48887        -0.776609     -0.496600      0.936219
O      13.94547      9.63893      8.66238        -1.279597      0.324703     -1.712379
O       5.78989      2.07620      0.21679        -0.179941     -0.637163     -1.847673
O       5.91895      1.92118     12.91335         0.948736     -0.397990      0.518341
O       5.94545     13.64179      0.37595         0.127014     -0.253328     -1.796448
O       6.20743     14.06882     12.74650        -1.117202     -0.904202      1.479953
O       5.76862      2.06701      4.46815         0.639689      0.072181      0.514799
O       5.70823     13.37265      4.46077         0.447368      1.354939      0.005543
O       5.78735      2.08196      8.51871         0.614048      0.042693     -3.671260
O       6.00097     13.81356      8.55803        -1.539253     -0.509321      0.837017
O       5.81763      5.88066      0.17284        -0.345781     -0.249961      0.840917
O       5.88390      5.32813     12.51719        -0.403138      1.578081      1.457254
O       5.89096      5.76146      4.29028        -0.821164     -0.090478     -1.277457
O       6.06966      5.92297      8.35302        -0.314603     -0.053380      1.875080
O       5.99016      9.83640      0.39159        -1.077967      0.345576     -1.455753
O       5.62945      9.86640     12.59939         0.692642     -1.846195      0.502620
O       5.94579      9.77423      4.33279        -0.276866     -0.077783      0.300203
O       5.85441      9.49541      8.29478        -0.064798      0.063639      0.078777
O       9.65910      2.30059      0.46483         0.708526     -0.192463     -0.940712
O       9.96077      2.06419     12.42747        -1.329644     -0.656755      1.628948
O       9.84606     13.58358      0.30317        -0.759045      0.879727     -1.723391
O       9.49212     13.37831     12.62411         0.124379      0.879242     -0.494774
O       9.67069      1.75567      4.29609        -0.434643      0.568403      1.131288
O       9.51649     13.72500      4.52587         1.022716     -0.002268      0.364140
O       9.70273      2.16030      8.47796         1.486816     -1.120377     -1.152630
O       9.69107     13.38172      8.40883         2.431050      1.090220      0.912690
O       9.54021      5.77605      0.35529         0.394016      0.656315     -0.196963
O      10.12977      6.01567     12.67448        -0.617773     -0.159118      1.319803
O      10.03571      6.09230      4.38018        -0.307576     -1.111521      0.423482
O       9.71625      5.85868      8.30616        -0.176241      0.097377      0.722157
O       9.58068      9.44406      0.54056         0.112235      1.207186     -1.645252
O       9.57823      9.73467     12.73614         0.142259     -0.124382     -2.166206
O       9.77787      9.80788      4.33882         0.075274     -0.718535      1.519088
O       9.77732      9.93495      8.50652         1.025023     -2.296554      0.507421
O       3.89947      2.00243      2.37782        -1.147404      0.010993      0.092849
O       3.96629      1.92494     14.79271        -0.877237      0.192178     -0.036326
O       3.91562     13.37117      2.21890        -2.039892      0.635464     -0.064910
O       3.87142     13.77275     14.75332         2.092800      0.667069      0.147331
O      15.55035      2.12485      2.12993        -1.040163     -1.354074     -0.221442
O      15.36582      1.64367     14.93044         3.091792      0.556275      0.345044
O      15.38986     13.77136      1.97472         1.352687     -0.527042      0.457797
O      15.44342     13.95516     14.74677         0.098746     -0.882876      0.307444
O       3.94869      2.20417      6.63531         0.671800     -0.571493     -0.811792
O       3.84623     13.63399      6.41660         0.854194      0.658514      1.107254
O       0.08035      1.99579      6.30914        -1.948313     -0.526087      0.182236
O      15.50496     13.87697      6.67774         0.636353     -0.021438     -0.395081
O       3.89470      2.24765     10.42282        -0.147751     -0.471298      0.955619
O       4.07678     13.83798     10.83865        -1.407150     -0.461377      0.284530
O       0.09682      1.98723     10.68089        -0.458234      0.022431     -0.318914
O       0.11411     13.63985     10.45465        -0.517065     -0.163327      0.409231
O       3.79211      5.88946      2.37646         1.278070     -0.475305     -1.148123
O       3.90614      5.73658     14.69287         0.508054     -0.397045      0.332432
O      15.60230      5.59001      2.38595        -0.123063      1.051871     -0.247155
O       0.02898      5.64512     14.47863        -0.717435      0.311883      0.896452
O       3.90909      5.91551      6.46469        -0.301449     -0.825829     -0.241684
O       0.01861      5.77438      6.19589        -0.797476     -0.484318      0.657012
O       4.00762      5.73722     10.47982         0.963439     -0.251739      0.757883
O      15.49189      5.83299     10.58235        -0.076541      0.244857      0.381173
O       3.66147      9.68978      2.50247         1.795509      0.608109     -0.289781
O       3.80063      9.71557     14.66231         1.662992     -0.715551      0.967456
O      15.56065      9.62739      2.04375        -2.883166      0.848637      0.471431
O      15.48731      9.95402     14.89113         1.515491     -0.183161     -0.339447
O       3.85811      9.63861      6.30786        -0.891804      0.074460      0.535079
O       0.01561      9.92195      6.73965        -0.300312     -0.667311     -0.630571
O       3.90997      9.68941     10.45672         2.172671     -0.627593      0.801731
O       0.23128      9.45841     10.73664        -1.923546      0.073924     -0.557153
O       7.57863      2.10189      2.24641         1.058190     -0.730555      0.752296
O       7.98610      1.92743     14.91719        -0.569942     -1.215091     -0.539868
O       7.66806     13.74066      2.61766         1.141206      0.598585     -1.218570
O       7.73277     13.64887     14.93092        -0.070719      0.073545      0.192980
O       7.80210      1.90060      6.56250         0.187365      0.105637     -0.164928
O       7.74581     13.64313      6.67211        -0.695885      0.349727     -1.132795
O       8.01253      1.99468     10.23289        -1.389579     -0.180170      1.493911
O       7.93524     13.86888     10.34974        -0.872215     -1.015236      1.700962
O       7.67266      6.07461      2.41447         0.280275     -0.627133     -0.741880
O       7.85482      5.90919     14.58620         0.222190      0.159615      0.004730
O       7.90204      6.23714      6.16350         0.405301     -0.640285      0.650192
O       7.87769      5.80753     10.77535         1.195230     -0.156756     -0.691522
O       7.84038      9.77483      2.45607        -0.879938     -0.089497      0.221073
O       7.61965      9.80677     14.74690        -0.187305      0.126211     -0.585306
O       7.76844      9.36531      6.46469         0.941560      0.500726     -0.290134
O       7.86146      9.78921     10.52863        -1.223946     -0.329594      0.237821
O      11.53214      1.90855      2.47454         0.604415      0.730106      0.280562
O      11.64746      1.88230     14.71356        -0.363236      0.608975     -0.035681
O      11.63830     13.92011      2.35562        -1.099956     -1.342475      0.208436
O      11.70416     13.59441     14.40206        -0.758529      1.018147      0.204849
O      11.63703      2.17120      6.22260        -0.509422     -1.452010      0.634145
O      11.67429     13.49418      6.33319        -0.127234      1.061729      0.790371
O      11.79335      1.80261     10.58079        -0.194730      0.514736     -0.655655
O      11.71865     13.54661     10.76674         0.661405      0.257811     -0.194897
O      11.73977      5.62489      2.00052        -2.557399      0.429129      0.606443
O      11.60737      5.83517     15.11969        -0.319819      0.123758     -0.287022
O      11.76121      5.81040      6.49394        -2.553225     -0.018293      0.150253
O      11.78326      5.84508     10.39011        -2.501876      0.813216      0.232506
O      11.61595      9.87114      2.25847         0.675941     -0.233228     -0.099756
O      11.64351      9.71497     14.73524        -0.343868     -0.369050     -0.026442
O      11.74483      9.75586      6.56078        -0.239969     -0.461351      0.267323
O      11.64861      9.96469     10.77058         0.023999     -0.656197     -0.467296
O       1.83720      3.85283      2.24050         1.333153      0.715677      0.082850
O       1.90323      3.84022     14.54998         0.073289     -1.463997      0.979687
O       1.88659     15.42827      2.26666         0.197408      0.092973      0.065125
O       2.04317      0.06442     14.90488        -0.462056      0.766615     -0.366295
O      13.61865      3.83841      2.54357        -1.037164      1.096601     -0.216281
O      13.66866      3.96044     14.89338        -0.034224     -0.959707      0.544372
O      13.57468     15.53500      2.14527         0.241568      2.587648     -0.068602
O      13.45449     15.54373     14.60016         0.263554      1.111261      0.546718
O       1.95575      3.85726      6.38103         0.194182      1.233240     -0.108375
O       2.19724      0.11667      6.65301        -0.607794     -2.914944     -0.805375
O      13.43536      3.85212      6.19514         1.291445     -0.743644     -0.341315
O      13.50510      0.16894      6.50247        -0.321649     -0.986106     -0.122321
O       1.63696      3.90485     10.71134         1.466540     -1.322071      0.694847
O       1.80002     15.49810     10.73014         1.082938      1.691145      0.304756
O      13.54277      4.15136     10.81555         0.288540     -2.056017     -0.195626
O      13.78640      0.06572     10.74765        -0.124300     -1.337769      0.503257
O       1.71636      7.78726      1.93262         1.002428     -2.001489      0.564390
O       1.67186      7.73707     14.77777         0.806862     -1.081246      0.434120
O      13.37504      7.82625      2.14583         0.221021      2.106518      0.291023
O      13.80054      7.78059     14.81860        -0.779100      0.312132     -0.221195
O       1.76210      7.65403      6.58494         0.406813      1.597027     -0.267216
O      13.78601      7.65603      6.65716        -0.072671      2.471967     -0.561101
O       2.01731      7.53815     10.78765         0.783027      6.134024      0.094904
O      13.70109      7.91643     10.88181        -1.436346     -0.780228     -0.846480
O       1.59607     11.74316      2.15975         0.355403      0.611590      0.562538
O       2.04146     11.85854     14.60401        -0.563244     -0.662943      0.268808
O      13.61433     11.74000      2.43487        -0.177355     -0.258106     -0.509015
O      13.36420     11.78157     14.79724         1.206430      0.377706     -0.243622
O       1.93807     11.87827      6.71693         0.064171     -0.263684      0.184132
O      13.48825     11.82568      6.36975         0.938572     -0.297706      0.175292
O       1.73805     11.50169     10.67087         1.130201      2.045157     -0.057535
O      13.95885     11.58915     10.41468        -0.207913      2.468241      0.967088
O       5.94672      3.92355      2.20650        -0.942367      1.578541      0.002591
O       6.28268      3.90773     14.75308        -1.254261     -0.937205      0.278516
O       5.77146     15.59067      2.43432        -0.478354      0.098098     -0.302595
O       5.98542     15.56805     15.12489        -0.306184     -0.441535     -0.588682
O       6.11036      4.02535      6.46320        -0.013566     -1.588238     -0.103376
O       5.69320      0.05411      6.41106         0.737703     -1.089457     -0.175838
O       6.18637      3.82875     10.57378        -0.335820     -0.227023     -0.523097
O       5.95458      0.12046     10.38618         0.226690      0.477446      1.235494
O       5.88778      7.91526      2.14870        -1.058700     -3.422515      0.452587
O       5.90684      7.59433     14.77252        -0.884632      2.547699     -0.791263
O       5.62021      7.68369      6.08053         0.722475      1.522975      1.065153
O       5.98938      7.66857     10.57130        -0.192427      1.731847      0.060428
O       5.98103     11.67416      2.42088        -0.726719     -0.212636     -0.121805
O       5.62724     11.63470     14.65487         0.550460      1.162097     -0.265006
O       5.61970     11.53524      6.46443         1.207744      0.891887     -0.459048
O       5.72931     11.71959     10.66266         0.907391     -0.583882     -0.365269
O       9.52079      3.98488      2.49032         0.516656      4.170834      0.634428
O       9.54539      3.95058     14.47109         1.138411      0.321381      0.417062
O       9.67858      0.13171      2.16552        -0.713280     -1.300772     -0.548409
O       9.95714     15.55839     14.57835        -1.222525     -0.543061     -0.112167
O       9.67175      3.80898      6.27400        -0.252304      1.854815      0.183161
O       9.72094     15.56165      6.66085         0.561871      0.839776      0.118901
O      10.01368      3.90044     10.26399        -0.609290      0.887608      0.702490
O       9.73001     15.50104     10.22931         1.097286      0.960339      1.038035
O       9.70717      7.78761      2.50921         1.028099      0.921960     -0.751396
O       9.57636      7.90666     14.97833         0.838176     -0.602519     -0.955537
O      10.05497      7.78883      6.51090        -0.999510     -0.281700     -0.396438
O       9.75337      7.72190     10.68161         0.462454      1.285519     -0.691808
O       9.49743     11.90348      2.35513         0.857971     -1.403062     -0.618405
O       9.72472     11.75423     14.87525        -0.314337     -0.159125      0.216345
O       9.62728     11.56163      6.41203        -0.034096     -0.108146     -0.130272
O       9.73449     11.71003     10.38853        -0.222396     -0.399675      0.918127
