  # total energy = -7847.26802767 
CRSYTAL
PRIMVEC
    15.6080000000000005    0.0000000000000000    0.0000000000000000
     0.0000000000000000   15.6080000000000005    0.0000000000000000
     0.0000000000000000    0.0000000000000000   16.6239999999999988
PRESSURE
3.94983 3.73708 2.94817 -0.340494 -0.331307 -0.238482
PRIMCOORD
320 1
Pb       4.13123      3.97145      4.22293        -0.393341      0.594948      0.258882
Pb       4.04537      3.69966     16.61514        -0.350424      1.077658      0.023093
Pb       4.17013      0.03727      4.12627        -0.997053      0.009761      1.276577
Pb       3.92792      0.17422      0.26243         0.197836     -2.465263     -0.074286
Pb       0.25149      3.87339      4.19034         0.049121      0.439415     -0.530563
Pb       0.04539      3.86449      0.09871        -0.044419      0.285801      0.645606
Pb      15.50576      0.06546      4.13033        -0.050647     -0.424993      0.548385
Pb       0.01975      0.07205      0.00361         0.308640     -0.654817      0.648547
Pb       3.99067      3.77302      8.18974        -0.378482     -0.298871      1.149069
Pb       3.92178      0.02509      8.63511        -0.164844     -0.851280     -0.569750
Pb      15.57905      3.74943      8.32752        -0.585233      0.936141     -0.887786
Pb      15.33949     15.54726      8.14944         0.052465     -0.314747     -0.281821
Pb       3.71170      3.83960     12.29435         0.380997     -0.156056      0.889537
Pb       3.82669      0.29207     12.38263         0.108979     -0.506924      0.195783
Pb       0.18934      3.90801     12.40960        -0.374624     -0.177430      1.002937
Pb      15.29195     15.37103     12.02642         1.301537      1.184651      2.191118
Pb       3.92370      8.14079      4.14812         0.112020     -1.279610     -0.157915
Pb       4.01195      7.92233     16.60392        -1.206715     -0.476680      1.226147
Pb       0.11562      7.70629      4.14450         0.177501     -0.185949     -0.473598
Pb       0.04408      8.10184     16.49391         1.194938     -0.411260      1.461846
Pb       4.12148      7.90681      8.60389        -1.364716     -0.998923     -0.479671
Pb       0.03250      7.79939      8.48564        -1.029665     -0.241147      0.889560
Pb       3.83077      7.58463     12.68516        -0.259029     -0.055906      0.370409
Pb      15.58722      7.62815     12.48003         0.102765      0.545557      0.057386
Pb       3.74293     11.93293      4.52004        -0.427463      0.203031     -0.422099
Pb       3.56950     11.81353      0.23200         0.288654      0.559528      0.156351
Pb       0.16839     11.62130      4.12654        -0.202859      0.829142     -0.148787
Pb      15.44613     11.62400     16.42847         0.691032      0.619004      0.255358
Pb       3.80543     11.53935      8.24870         0.014400      0.950544      2.047131
Pb      15.49338     11.61581      8.18287        -0.095860      0.704615      1.561540
Pb       4.35495     11.84598     12.44102        -2.276212     -1.118626      0.896944
Pb      15.36080     11.76449     12.48938        -0.450132     -0.480745      0.060761
Pb       8.10913      3.95113      3.72454        -1.705140     -0.029713      1.476232
Pb       7.84460      3.97692     16.44380        -1.033555     -0.300101      0.836740
Pb       8.24046     15.57515      4.10693        -1.422536      0.390486      0.474619
Pb       7.63884     15.33699     16.53692         0.304201      1.054268      1.342158
Pb       7.51760      4.03462      7.94061         1.368871     -1.495439      2.645110
Pb       7.70515      0.03488      8.34741         0.234900     -0.471111     -0.005129
Pb       7.87176      3.91794     12.39986        -0.051744     -0.693079      0.600691
Pb       8.14551      0.25396     12.62885        -2.130196     -1.645334      0.203655
Pb       7.59878      7.85519      4.08730         0.660540      0.044832     -0.466857
Pb       7.64453      7.88511      0.17594         0.583526     -0.190273      0.099644
Pb       7.68901      8.00174      8.26860         1.388075     -0.350828      0.492829
Pb       7.73081      8.03637     12.46933        -0.235860     -1.441615      1.099233
Pb       7.70426     11.80657      4.03458        -0.108000     -0.889127      0.567018
Pb       7.95083     12.09661     16.56301        -0.861088     -3.390024      1.463948
Pb       7.63094     11.47417      7.98408         0.491223      0.596688      2.239652
Pb       7.88482     11.45505     12.66856        -0.236839      1.292119      0.070472
Pb      11.36043      3.81807      3.97216         1.391729     -0.276623      0.525658
Pb      11.78854      3.73245     16.54169         0.016917      1.199633      0.255309
Pb      11.66412     15.43654      4.28070         0.622074     -0.433798     -0.228928
Pb      11.96272      0.00138      0.22924         0.463948     -0.667080     -0.133201
Pb      11.54425      4.04736      8.52667         1.100118     -0.892591     -0.937546
Pb      11.59968      0.19625      8.13215         0.439344      0.414433      1.307712
Pb      11.55104      3.52998     12.35193         1.064917      0.676941      1.929292
Pb      11.54681     15.30934     12.33370         0.220211      0.503165     -0.173220
Pb      11.23275      7.57996      4.19795         1.629063      1.163654     -0.442929
Pb      11.92355      7.90395     16.56261        -1.113169     -1.035039      1.327159
Pb      11.88907      7.60604      8.70187        -0.194884      0.493225     -0.373294
Pb      11.58886      7.72446     12.60207         0.288506     -0.250995     -0.298092
Pb      11.41365     11.48765      3.88857         0.775404      1.178333      1.701911
Pb      11.87112     11.43377     16.28507        -0.425745      2.102829      1.721435
Pb      11.31757     11.68426      8.23854         1.067892      0.044709      1.310091
Pb      11.76704     11.58070     12.38044        -1.119453      0.755013      0.663134
Ti       2.18365      1.89757      2.22854        -2.697560     -1.201436      0.585274
Ti       1.84669      1.92030     14.78833         0.428319      0.524761     -0.523596
Ti       1.92278     13.82820      2.29712        -0.252006     -1.511454      0.933510
Ti       1.87419     13.90460     14.20886        -0.186440      0.048302      2.163040
Ti      13.73929      2.19335      2.20161         0.659570     -1.905705      0.078699
Ti      13.67369      1.95788     14.77474         0.354618      0.131838     -2.176692
Ti      13.69897     13.73376      2.07604        -0.249916     -1.572081      0.755061
Ti      13.71971     13.77100     14.41452        -0.180313     -1.060898      0.872949
Ti       1.84306      2.00410      6.39448         1.149534     -1.342142     -1.364205
Ti       1.96148     13.71216      6.62599         0.559552      0.347872     -0.616653
Ti      13.50469      1.87225      5.94586        -0.308296      0.272843      2.048355
Ti      13.41310     13.45377      6.42716         1.475714      0.925025     -1.593402
Ti       1.78368      1.96807     10.19494         2.702742     -0.878164      0.818967
Ti       1.81318     13.65474     10.59314         1.343215     -0.106994     -2.743994
Ti      13.76051      1.98174     10.56802        -1.381457     -1.485048     -0.590426
Ti      13.36624     13.63467     10.35567         0.554519      0.304560     -0.028107
Ti       2.06476      5.82646      2.10261        -0.220614      0.553783      0.675546
Ti       1.94113      5.86131     15.03068         0.675043     -0.941363     -0.917888
Ti      13.60096      6.01918      2.40083         0.134916      0.094951     -0.755720
Ti      13.67770      5.88815     14.95965         0.196246     -1.744138     -1.792695
Ti       2.22020      5.88662      6.75103        -0.613085      0.147664     -2.549565
Ti      13.79100      5.72629      6.29140        -0.008369     -0.265687      0.231981
Ti       2.02418      5.87764     10.42972        -0.037142      0.087822      0.809605
Ti      13.59225      5.81735     10.81425         0.499082      0.637088     -1.127515
Ti       2.11345      9.76926      2.33080        -1.200595      0.460968     -0.477292
Ti       2.20083     10.06676     14.65573        -1.458906      0.157458      1.601258
Ti      13.59873      9.92225      2.31830         0.919221     -1.016430      0.051872
Ti      13.58593      9.64795     14.58068         1.634588      1.917755     -2.006366
Ti       1.75781      9.69378      6.64408         1.941494     -0.130651     -2.027360
Ti      13.51677      9.53025      6.29238         0.660519     -0.108061     -1.142618
Ti       1.78753     10.00127     10.93455        -1.354615     -2.041019     -2.147029
Ti      13.41360      9.79209     10.60956         2.009176     -2.671628      0.273740
Ti       6.17714      1.89888      2.30227        -1.408097     -1.126089     -0.608281
Ti       5.89565      1.74818     14.86995        -0.493429      0.151984     -2.144143
Ti       5.79995     13.65128      2.28271        -0.462470      0.823010     -0.879357
Ti       5.74220     13.47281     14.80495        -1.109329      2.610597     -0.829416
Ti       5.77018      1.92297      6.20880        -0.755903     -1.435152     -0.014138
Ti       5.92626     13.60495      6.45810        -1.972336      0.753668     -1.182284
Ti       5.79858      1.91555     10.42089        -0.585690     -0.535898      1.156399
Ti       5.83145     13.53695     10.75702        -1.193120      1.274571     -2.139941
Ti       5.86715      5.72319      2.12183        -0.573720      1.875805     -0.569660
Ti       5.83359      5.81371     14.74658        -1.090467     -0.457475      1.012306
Ti       6.18319      5.96220      6.39685        -2.282189     -0.869730     -2.869152
Ti       6.05178      5.77231     10.64690        -1.794795     -0.735032     -1.440412
Ti       5.89043      9.96062      2.02837         0.873464     -0.855386      1.514237
Ti       5.91118      9.74037     14.78418        -0.693486      0.437194     -0.422763
Ti       5.80122      9.73742      6.34809        -1.340532      0.590751      0.024995
Ti       5.59255      9.51294     10.69017         1.159972      3.109217     -0.812333
Ti       9.87197      1.74540      1.80189        -0.072915     -0.108090      2.762513
Ti       9.77128      1.86980     14.80236        -0.479193      0.780615     -0.846705
Ti       9.76447     13.49466      2.09219         0.764276      0.448437     -0.032343
Ti       9.81202     13.69347     14.71016        -0.442659     -1.543143     -1.903302
Ti       9.51840      2.05969      6.42654         1.752726     -0.937869     -0.149095
Ti       9.67751     13.60120      6.41560        -2.346896      0.776917      0.233066
Ti       9.75529      1.80963     10.55336        -0.143039     -0.755968     -1.463772
Ti       9.34684     13.42568     10.60634         2.353511      1.171840     -1.182220
Ti       9.76395      5.69011      1.94661         0.071314      2.083906      0.652610
Ti       9.72383      5.92812     14.89692         0.377872     -0.362617     -0.312836
Ti      10.01325      5.82547      6.18550        -1.305333     -0.018726     -0.020466
Ti       9.84667      5.73282     10.66231         0.218941      1.591174     -0.626625
Ti       9.73912      9.55923      2.18489        -1.286395      0.722905      0.556432
Ti       9.74941      9.67687     14.48764        -1.271456     -0.117503      1.455674
Ti       9.95954      9.58208      6.48657        -2.905805     -1.097264     -1.969146
Ti       9.59602      9.66780     10.49999         1.083267     -1.288037     -1.697233
O       1.93060      1.30444      0.50300        -0.830946      1.300024      0.514104
O       1.81816      2.16470     13.00994         0.630877      0.283572      0.470993
O       1.93845     14.06765      0.57583         0.023380     -0.157921     -0.249023
O       1.71876     14.02828     12.41320         0.239231     -0.358225      0.916210
O      13.45947      1.95152      0.33722         0.231230     -0.102502     -0.362965
O      13.81122      1.75264     12.96745        -0.525991      0.501744      0.416272
O      13.69873     13.36862      0.31532        -0.282686      0.573388     -0.723374
O      13.54586     13.61792     12.59967        -0.333999      0.371436      0.668908
O       2.05565      2.15127      4.56609         0.097564      0.238858      0.050781
O       1.75459     13.30252      4.77728         0.025402      0.069562      0.444658
O      13.40644      1.70938      4.16116         0.395109      0.822953     -0.028622
O      13.40111     13.56620      4.58606        -0.542340      0.292263      0.994287
O       1.95137      1.92871      8.42921        -0.863503      0.480209      0.259644
O       1.85191     13.36902      8.54565        -0.227147      0.585439      1.471744
O      13.79262      1.70692      8.81941        -0.078812      1.235807     -0.203206
O      13.23939     13.89410      8.61352         0.199654     -1.036943     -0.625553
O       2.21254      5.91511      0.38315        -0.444131     -0.190757      0.292627
O       1.90347      5.31092     13.28398        -0.283397      1.054551     -1.209171
O      13.65140      6.11623      0.60174        -0.252271     -0.055013     -0.668803
O      13.85786      5.91633     13.15771        -0.590552      0.320668     -0.087195
O       2.24742      5.82975      4.89234        -0.604151      0.164188      0.953381
O      13.80928      5.62564      4.51706         0.024589      0.498909     -0.161735
O       1.74406      5.89702      8.72491         0.546147     -0.717320      0.579409
O      13.30273      5.80051      8.98239         0.226368     -0.774584      0.074217
O       2.18229      9.79279      0.60792        -0.300990      0.325572     -2.346630
O       2.26831      9.89982     12.96011        -0.249503     -0.448997     -1.467271
O      13.46935      9.79842      0.42269         0.369840      0.069117     -0.520775
O      13.34083      9.71366     12.81439         0.640726     -0.806852      0.317070
O       2.06348      9.85670      4.59070        -0.638794     -0.738077      1.179938
O      13.53145      9.72246      4.47943         0.392939      0.086060      1.573888
O       1.24230      9.91309      9.14187         1.889434     -0.333346     -0.341956
O      13.69804      9.41417      8.92343        -0.605543      1.226960     -1.138598
O       6.22050      1.57328      0.52053        -0.823244      1.197411     -0.476285
O       5.56439      1.74492     13.06945         0.422711      0.342496      0.400801
O       5.55417     13.78624      0.45137         1.126719     -0.653442      0.932716
O       5.59440     13.68540     12.98471         0.892287     -0.115610     -0.222765
O       5.78949      2.10719      4.42057         0.285342     -0.138503     -0.362001
O       5.75518     13.24397      4.66231         0.915353      0.956519      0.222407
O       5.57253      1.82788      8.69944         0.922707      0.294503     -1.324081
O       5.71855     13.68671      9.00799         0.716514     -0.456474     -1.177531
O       5.78647      5.87154      0.31899         0.037453      0.133611      0.630681
O       5.72561      6.03069     12.98931         0.714357     -0.606651     -1.542830
O       6.01045      5.59100      4.54499         0.011025      0.535368      1.595010
O       6.26649      5.97001      8.80322        -0.622974      0.061936      0.201848
O       6.00276      9.79647      0.31645         0.005098     -0.211188     -1.874096
O       5.85851      9.52417     12.87530        -0.638920      0.665788     -1.158663
O       5.56120     10.02165      4.64755         0.428304     -0.649093     -0.928514
O       5.89847      9.41417      8.74534        -0.164851      0.389105      0.642652
O       9.64134      1.44566      0.14000         0.281002      0.585926     -1.250089
O       9.75362      1.82674     12.87274        -0.067586      0.654844     -0.334888
O       9.67981     13.52778      0.29820         0.529947      0.253555     -0.941711
O       9.41095     13.51250     12.89497         0.964598      0.098741      0.339248
O       9.55256      2.14856      4.67907         0.528354     -0.537112     -1.483885
O       9.71571     13.88668      4.67731         0.292446     -1.633867     -1.884925
O       9.69980      1.79107      8.77174        -0.307026      0.421084     -1.000710
O       9.32374     13.52561      8.76195         0.652227     -0.654730      0.834377
O       9.61026      6.21308      0.31721         0.648926     -0.850389     -1.085568
O       9.93886      5.33389     13.26522        -1.426207      0.490591     -2.649500
O       9.71762      5.73610      4.29552         0.194770     -0.753809      0.545516
O      10.11493      5.80034      8.90108        -0.380809     -0.680983     -0.529232
O       9.42917      9.80129      0.51623         1.023851     -0.442533     -2.321768
O       9.71007      9.54359     12.70459        -0.320407      0.241223     -0.151328
O       9.85559      9.47385      4.58421        -0.159933      0.798371      0.327187
O       9.66817      9.67494      8.48898         0.066703      0.269795      1.704628
O       3.95907      1.51946      2.16458         0.995216      1.168752      1.349516
O       3.71398      1.66187     15.30684         1.013990      1.539409     -1.847533
O       3.89921     13.77164      2.79789         0.748547      0.010740     -0.852456
O       3.56921     13.84708     14.74063         1.578150      0.559114     -0.263488
O       0.03241      1.82467      2.44982        -0.980201     -0.144415      0.237045
O      15.47240      1.94257     15.27931         0.515217      1.222960     -0.308237
O      15.54460     13.41020      2.49607        -0.099825      1.033653      0.130238
O      15.56018     13.35690     14.40235        -0.772435      0.948526      1.203053
O       3.93790      1.83684      6.56481        -0.611256      0.142674      0.009734
O       3.89291     13.66081      6.66384        -0.243090     -0.404502      0.023212
O      15.55680      1.86922      6.25725         0.205466      0.653051      0.575638
O      15.26544     13.51782      6.71184        -0.037002     -0.098147     -0.184646
O       3.71713      2.04534     10.68563         0.041625     -0.072006      0.309474
O       3.73050     13.52978     10.87845         0.140315     -0.604707     -0.274361
O       0.07526      1.83617     10.81987        -1.655014      0.501755     -0.305940
O      15.38496     13.51125     10.49022        -0.152287      0.551966      0.186100
O       3.83887      5.75607      2.56133         1.366446     -0.291897      0.103855
O       3.92062      5.61428     15.01401         0.886648      0.725686      0.014306
O       0.17568      5.86901      2.59171        -0.429544      0.555123      0.337987
O      15.60731      5.93344     15.41740        -0.173296     -0.433985     -0.682969
O       4.14046      5.87445      7.13120        -0.488089      0.622592     -1.086650
O      15.59407      5.84305      6.84064        -0.429824     -1.333313     -0.478775
O       3.91742      5.60187     10.68241        -0.835803      1.291099      0.187540
O      15.48232      5.85734     10.89683         1.036193     -0.710632     -0.078226
O       4.12985      9.64386      2.32157        -1.883631      0.208645      0.927139
O       3.93667      9.82021     15.15017        -0.526518      0.543490     -0.258446
O       0.06390      9.84671      2.22010        -1.014523     -0.142048      1.314638
O       0.13415      9.80892     14.89488        -0.284760     -0.053389     -0.116116
O       3.83920      9.46551      6.94005        -0.252289      0.499498     -0.442426
O      15.51520      9.70807      6.76933         0.050022      0.021380     -0.976960
O       3.82315      9.94115     10.66260        -0.138679     -0.681767      0.144353
O      15.44067      9.68341     11.32615         0.748863      0.291763     -0.253692
O       7.99493      1.84580      2.52898         0.824533      0.399219     -0.628215
O       7.75754      1.99020     14.77334         0.407644     -0.584335      0.388451
O       7.79776     13.52436      2.48818        -0.081097      1.279611     -0.038441
O       7.64039     13.64119     15.01266        -0.260140     -0.404584     -0.973804
O       7.65076      2.13294      6.55557         0.767395     -0.052875      0.562538
O       7.76998     13.38260      6.67151        -1.121664     -0.538672     -0.259551
O       7.63540      1.97218     10.59755         1.167537     -0.379895      1.121382
O       7.64259     13.60897     11.07494        -0.469857      0.197371     -0.070129
O       7.82804      5.84569      2.13471        -0.640203     -0.845067      0.949312
O       7.75775      6.17809     15.04273        -0.565033     -1.372011     -0.396856
O       8.08743      5.62643      6.48971        -2.443162      0.041129      0.204859
O       7.92083      5.77070     10.89832        -0.645248     -0.183568      0.740274
O       7.72766      9.60268      2.42619        -0.177857      0.000372      1.361625
O       7.73107      9.56555     14.61450         1.476989      0.009853      0.588747
O       7.64882      9.81095      6.44456         0.727886     -0.400821      0.196438
O       7.79789      9.43733     10.63264        -0.778471     -0.028822      0.485077
O      11.71226      2.17602      2.22628        -1.416037     -0.778574     -0.181860
O      11.59334      2.02335     14.88066         0.946559     -0.771128      0.334986
O      11.60850     13.71169      2.24832         0.142124     -1.412190      0.436442
O      11.63875     13.65212     14.70128         0.687488     -0.406046      0.220356
O      11.64763      1.55606      6.33324        -0.773134      0.786587     -0.144653
O      11.31963     14.09530      6.72123         3.693055     -1.779174     -0.111166
O      11.60172      1.72009     10.73040         0.464378      0.171838      0.424193
O      11.49366     13.44834     10.82678         0.270760      0.209526     -0.179775
O      11.63418      5.78678      2.36205         0.444466     -0.777067      0.315380
O      11.60910      5.86388     15.08402         2.594389      0.747450      0.934446
O      11.77839      5.77594      6.49356         0.884198      0.687955      0.466982
O      11.65987      5.78806     11.27215         0.374278     -0.325320     -0.563863
O      11.63522      9.81336      2.49978        -0.439612     -0.781665     -1.128904
O      11.69327      9.86090     14.69867        -1.178501     -1.248505      0.645061
O      11.66655      9.30642      6.66125         2.063793      0.420071      0.366453
O      11.52997      9.43941     10.83142         0.827338      1.427333     -0.391028
O       1.89562      3.69400      2.13857         0.603318      1.371674      0.448193
O       2.02426      3.79272     15.48220        -1.078663     -0.752790     -0.428879
O       1.85493     15.53098      3.11499         0.957263      0.453880     -1.525164
O       1.37586      0.11573     14.61446         0.657805     -2.142953      0.384401
O      13.98761      3.93091      2.39616        -1.076898      0.679684      0.174086
O      13.59097      3.94993     14.96058         0.271544     -0.372397      0.619168
O      13.48293     15.55981      2.12776         0.418177     -0.199604      0.307779
O      13.69785     15.52890     14.95531        -0.445415     -0.195533     -0.144785
O       1.94610      3.91755      6.91032         0.003733     -0.036088     -0.640796
O       1.89546     15.54547      6.64294        -0.635262      0.362053     -0.222667
O      13.49651      3.68772      6.55516         0.695615      0.565753      0.113871
O      13.66304      0.04341      6.45145        -0.073804     -0.629607      0.379457
O       1.84470      3.86937     10.69735        -0.583577      0.784693     -0.095966
O       1.98899      0.04821     10.21844        -0.488045     -1.056335      1.169072
O      13.49156      3.76556     10.84809         0.357437      0.920749     -0.100553
O      13.57145      0.00149     10.69351        -1.320840     -1.603390     -0.020935
O       2.06435      7.84912      2.43718        -0.198692     -0.351704      1.059831
O       2.14695      7.69142     15.07261        -0.334520      1.333273     -0.653199
O      13.32644      7.82328      2.80280         1.615717     -0.572465     -0.896232
O      13.81345      7.88228     15.11700        -1.176197     -0.449519     -0.629343
O       1.89365      7.75114      7.12892         0.335905      1.310125     -1.341346
O      13.82088      7.65161      6.65241        -0.805209      0.845528     -0.445560
O       1.88282      7.75695     10.93706         0.581381     -0.768166      0.236861
O      13.68259      7.74930     10.79550        -0.997105     -1.123123      1.442042
O       2.19069     11.86535      2.32939        -0.334840     -1.124475      0.834104
O       2.08021     12.00574     15.09192        -1.044954     -2.354922     -0.770286
O      13.45196     11.69930      2.47729         0.232071     -0.113659      0.150386
O      13.66435     11.57251     14.69691        -0.360905      0.679415      0.913727
O       2.03956     11.55235      6.88147        -1.187738     -1.442677     -1.175304
O      13.29869     11.51848      6.67300        -0.470155      0.593619      0.291739
O       1.61449     11.75951     11.16311         1.193788      0.612000     -0.817643
O      13.48773     11.62642     10.80766        -0.230237      0.808802     -0.701291
O       5.73704      3.79648      2.26958         0.648631     -0.160712      0.449848
O       5.93759      3.85127     15.06778        -0.211496      0.185865     -0.459782
O       6.10548      0.00049      2.83788        -0.380692     -0.776783     -0.795591
O       5.84440     15.48826     15.16793        -0.095199      0.859710     -1.008641
O       5.62515      3.76240      6.59452         1.131272      2.025828      0.294844
O       6.04106     15.49318      6.49057        -0.068069      0.268482      0.141123
O       5.78564      3.88745     10.75350         0.923653      0.793262      0.382174
O       5.41259      0.00231     10.68039         0.927638      0.429988      0.794390
O       5.88538      7.66270      2.57272        -0.393417     -0.252726     -0.260609
O       5.59380      7.98892     15.00470         0.681166     -2.812538     -0.199566
O       6.04505      7.77022      6.37735        -0.055335     -0.663985      0.375711
O       5.56807      7.73569     10.96216         0.575575     -1.515272     -0.358649
O       5.89104     11.78819      2.22492         0.013820     -0.083669      0.780971
O       5.67726     11.68486     15.00702         0.378762     -0.019748     -0.372180
O       5.54519     11.60694      6.85963         1.349010      0.047951     -0.544117
O       6.06088     11.53463     10.86072        -0.841292      0.309020      0.425104
O       9.72202      3.77050      1.88858        -0.226288      0.089683      0.792121
O       9.72068      3.81912     15.24368        -0.056262     -0.745813     -0.190799
O       9.92468     15.47655      2.32340        -0.932714      1.617317      0.309466
O       9.50907     15.46376     14.68870         0.408324      1.635529      0.459221
O      10.16901      3.85747      6.46381        -1.382634     -0.193725      1.168320
O       9.23400     15.54306      6.62921         0.425436      1.068663      0.231762
O       9.87424      3.72352     10.77172        -0.868441      0.862365      0.279377
O       9.63480     15.37512     10.80516        -0.142659      1.064062      0.428252
O       9.71842      7.71379      2.43607         0.109141     -0.160004      0.094976
O       9.84509      7.80800     14.90331         0.108139      1.781061     -0.566475
O       9.61477      7.61773      6.52839         0.328738      0.360749      0.114603
O       9.82979      7.65883     10.62756        -0.475191     -0.188231      1.131714
O       9.41935     11.60706      2.48492         1.937584      0.684154      0.037269
O       9.41192     11.57761     14.81198         1.230804     -0.218211     -0.054960
O       9.88893     11.50050      6.56521        -0.258691      1.580772     -0.529380
O       9.56123     11.48759     10.97849         0.168394      0.515178     -0.831337
