  # total energy = -7843.84620892 
CRSYTAL
PRIMVEC
    15.6080000000000005    0.0000000000000000    0.0000000000000000
     0.0000000000000000   15.6080000000000005    0.0000000000000000
     0.0000000000000000    0.0000000000000000   16.6239999999999988
PRESSURE
2.54325 1.31359 -3.48858 -0.038275 -0.078608 -0.238905
PRIMCOORD
320 1
Pb       3.80559      4.08776      4.18110        -0.437389      0.157183     -0.667258
Pb       3.84290      4.08334      0.19126         0.359106     -0.198664      0.364051
Pb       3.92246      0.10756      4.37374        -0.744334     -0.533667      0.041723
Pb       3.78441     15.41301     16.44757         0.651694     -0.295582      1.395496
Pb       0.01997      3.99786      4.23330         1.076055      0.028966     -0.795788
Pb       0.05899      3.76299     16.59793        -0.038590      0.712391      0.786464
Pb      15.59215     15.48840      4.45005        -0.275668      0.348186     -0.943337
Pb       0.29495     15.42239     16.59956        -0.943851     -0.978342      1.448702
Pb       3.91421      3.73713      8.33873        -0.402782      0.073149     -0.893694
Pb       3.84165     15.59567      8.19682        -0.769931     -0.152273     -0.287366
Pb      15.42005      4.09360      8.18553         1.259277     -0.995701      1.159379
Pb      15.49535      0.22941      8.22312        -0.208838     -0.456922      0.626832
Pb       4.12496      3.85425     12.40650        -0.383791      0.478984      0.131996
Pb       3.86055     15.51604     12.36751        -0.195000      0.700667      0.862425
Pb      15.57646      3.63755     12.55143        -0.078802      1.417613      0.127662
Pb       0.11790      0.15649     12.36146        -1.686866     -0.252728      1.047464
Pb       3.67950      7.84935      4.28215         0.677447     -0.339460     -0.395195
Pb       3.63571      8.03547      0.12352         0.320147      0.489999     -0.568908
Pb      15.46163      8.00153      4.11849         0.331588     -0.780079      0.716191
Pb       0.00932      7.89614      0.20189         0.715815      0.686059      0.036200
Pb       3.72275      7.92640      8.47332         1.063649     -0.532194      0.052919
Pb      15.60126      7.51405      8.41905         0.051696      0.376535      0.875482
Pb       3.90214      7.83273     12.60097         0.032175     -0.935350      0.462391
Pb       0.22585      7.53677     12.74887        -1.127354     -0.268735      0.108491
Pb       3.95620     11.68312      4.16190        -0.038233      0.482034      0.228402
Pb       3.85623     11.72700     16.51442        -0.655426     -0.219323      0.643409
Pb      15.47889     11.62633      4.58130        -0.821278      0.334647     -0.304491
Pb       0.06033     11.78301      0.05153        -0.006692      0.559868      0.006742
Pb       3.99708     11.70598      8.65365        -1.132948     -0.521919     -0.797400
Pb      15.55742     11.26774      8.37025        -0.666956      0.291422      0.647557
Pb       3.54070     11.81759     12.42219         0.066296      0.091148      0.435372
Pb      15.51297     11.69954     12.39522        -0.347064      0.253566      0.224881
Pb       7.71742      4.12655      4.32175        -0.327886     -0.335538     -1.220019
Pb       7.85992      3.64118      0.06018        -0.681020      0.777706      0.523594
Pb       7.57200      0.17344      4.00968         1.407135     -0.463999     -0.012937
Pb       7.77219      0.24284      0.10703        -0.193677     -0.388459      0.487913
Pb       7.95311      3.92994      8.67988        -0.354720     -0.527231     -0.662556
Pb       7.80351      0.23487      8.31834         0.910650     -0.042525     -0.188392
Pb       7.94984      3.70501     12.66203        -0.860455      0.226341     -0.477004
Pb       7.63033     15.29967     12.56773         0.257081      1.116911      0.161087
Pb       7.81898      7.72918      3.91285        -0.921532     -1.206816      1.982763
Pb       7.90196      7.93790     16.35141        -0.818919     -1.413814      1.202060
Pb       7.91910      7.68704      8.27033        -0.359374     -0.535665     -0.569152
Pb       7.61874      7.68414     12.68130         0.408804     -0.405060     -0.088720
Pb       7.60424     11.91138      4.28669         0.173075     -0.704087     -0.277301
Pb       7.55775     11.31201     16.60799         0.808089      0.889454     -0.431109
Pb       7.49919     11.91524      8.58978         2.126010     -1.168952     -0.336702
Pb       7.92634     12.03011     12.66749        -0.306130     -1.798155      0.307523
Pb      12.03613      4.05235      4.03885        -0.655714     -0.270208     -1.036674
Pb      11.91982      3.78876      0.11313        -0.541283      1.060505     -0.215786
Pb      11.74412     15.60107      3.97151         0.301923     -0.293981      0.779089
Pb      11.95146     15.54167      0.17594         0.264143     -0.404504      0.002595
Pb      11.58274      3.94796      8.31686         0.166929     -0.397396      0.429007
Pb      11.38087      0.18101      8.18367         1.168078     -1.037896      1.384827
Pb      11.79123      3.92587     12.68366         0.766774      0.512501     -0.458865
Pb      11.72047      0.06487     12.23004         0.510178     -0.805529     -0.798231
Pb      11.70978      7.76495      4.06835        -0.022096     -0.301680      0.043801
Pb      11.82618      7.73148     16.51749        -1.740947     -0.622816      1.594117
Pb      11.48334      7.83270      8.23468         0.155165     -1.156481      0.758488
Pb      11.75095      7.80012     12.34284        -0.496827     -1.078785      0.466980
Pb      11.63331     11.75531      4.35922        -0.297021     -0.398795     -0.443571
Pb      11.70773     11.67150      0.22869        -0.653607      0.155808     -0.591280
Pb      11.81994     11.14861      8.17053        -0.409241      1.855434      1.210904
Pb      11.45103     11.58622     12.23879         0.692298      0.917569     -0.074935
Ti       1.90575      1.87346      2.10135        -0.836737      0.640264      4.163324
Ti       2.17604      1.92793     14.73805        -3.743754      1.126647     -1.805439
Ti       1.92134     13.50295      2.40628         0.382740      1.994372     -1.351316
Ti       1.77647     13.66851     14.61616        -0.637231     -0.841908     -0.239936
Ti      13.62371      1.85418      1.92753         3.503299      0.746588      2.021912
Ti      13.88638      1.82281     14.61462        -1.704716      0.774673     -0.835294
Ti      13.63855     13.51806      2.13885         2.622532      2.152044     -0.560184
Ti      13.45555     13.66684     14.24734         3.171129     -0.970315     -0.389382
Ti       1.99235      1.94676      6.21833         0.392773      0.534576      2.655547
Ti       1.82853     13.59895      6.40563         2.556337      1.014136      0.233895
Ti      13.70874      1.93253      6.13724        -0.604720     -0.603637      1.255544
Ti      13.39721     13.75611      6.50130         1.085560     -0.334943     -0.164324
Ti       1.87823      1.97559     10.44180        -0.418191      1.741403     -2.598263
Ti       1.71904     13.82395     10.46235         1.726910     -2.008945     -2.175698
Ti      13.61020      2.03785     10.35788        -0.811986     -0.619996     -0.514879
Ti      13.78965     13.48443     10.29459        -3.364061      0.053958     -1.044965
Ti       1.88561      6.00731      2.25230        -0.250277     -2.021227      1.493914
Ti       1.92812      5.77765     14.91804         0.743808      0.619260     -0.091360
Ti      13.76538      5.92280      2.20530         0.498895     -0.567746     -0.406136
Ti      13.81444      6.03581     14.95823        -0.708071     -3.502711     -0.892759
Ti       2.08061      6.08368      6.49192        -2.736444     -1.501855      0.121079
Ti      13.75423      5.85616      6.38839         0.581273     -0.389915      0.288073
Ti       1.93208      5.76208     10.58709        -1.086766      0.175859      0.700803
Ti      13.67158      5.84599     10.68958         0.336999     -1.036275      0.947866
Ti       1.86223      9.95199      2.40572         1.899344     -0.241317     -2.172344
Ti       1.74187      9.78662     14.62046         0.989212     -1.313169      1.670017
Ti      13.47801      9.81904      2.18436         2.410852     -1.487759      0.953111
Ti      13.47109      9.80284     14.88747         1.799734      1.819393     -1.208533
Ti       2.01505      9.86248      6.37347         0.325469     -0.759789     -0.677793
Ti      13.66949      9.50711      6.34152         0.169669      0.676016      0.669718
Ti       1.97891      9.50694     10.73265        -1.079190      0.498425     -0.181137
Ti      13.67279      9.60235     10.74839         0.232033      0.917881     -0.836538
Ti       5.65550      1.83397      2.17960         0.796834      1.089351     -0.099007
Ti       5.87462      1.97784     14.62956        -0.017196     -0.508207      1.905435
Ti       5.86022     13.55781      2.34277        -1.857440      0.904728     -0.644186
Ti       5.72092     13.58594     14.80073         0.183752      0.092737     -0.157664
Ti       5.89823      1.83435      6.27077        -0.315943      2.431026      1.185761
Ti       5.79537     13.56798      6.50391        -1.230316     -0.074508     -1.184537
Ti       5.78774      1.89043     10.27635         1.404977      0.969677     -0.566619
Ti       5.63373     13.58090     10.67256         0.885470      0.767789     -0.257677
Ti       5.84360      5.79092      2.05611         0.139539     -0.402505     -0.599513
Ti       5.79830      5.76084     14.65053         0.387116      0.007430      0.966566
Ti       6.03099      5.77849      6.31875        -0.387518     -0.506074     -1.489463
Ti       5.68422      5.86807     10.34921         0.408292     -0.843695      0.323244
Ti       5.88049      9.67245      2.20545        -1.836478     -0.760381     -0.065020
Ti       5.75156      9.66286     14.47216        -1.118017      0.657233      0.236411
Ti       5.90325      9.59863      6.24850        -0.173058     -0.281492     -0.870861
Ti       5.90383      9.69598     10.51422        -0.790471     -1.024104     -0.448670
Ti       9.81399      1.91409      2.33734        -0.907513      1.443645     -0.151680
Ti      10.00003      1.85489     14.68577        -1.725617      0.513946      0.385739
Ti       9.80979     13.68962      2.03281        -1.721728      0.088667      0.120349
Ti       9.84625     13.77810     14.63786         0.128729     -1.552624     -0.631424
Ti       9.76458      1.86007      6.31100        -0.619171     -0.337320     -0.552966
Ti       9.65819     13.49043      6.12241        -0.044939      1.613782      2.477020
Ti       9.68952      1.90283     10.74976         0.950584     -0.370052     -1.967048
Ti       9.62220     13.64224     10.47269         1.833225      0.419185     -1.948069
Ti       9.78850      5.88217      2.10057        -0.598246     -2.023528     -0.648415
Ti       9.74124      5.63003     14.63349         0.590652      3.228757      0.009696
Ti       9.86464      5.56125      6.13063        -1.982699      2.783112      0.732899
Ti       9.63236      5.85267     10.58164         2.309567     -1.143303     -0.415692
Ti       9.65394      9.64228      2.39776         2.407226      1.800852     -2.471356
Ti       9.75373      9.57906     14.52233        -1.777956      0.893869     -0.948311
Ti       9.63429      9.54899      6.28336         1.628031      0.511987     -0.399475
Ti       9.60854      9.61995     10.47317         1.095837      0.575644     -0.070339
O       2.01500      1.84054      0.42049        -0.094593      0.269702     -4.415605
O       1.77194      1.98230     12.88293         0.840976      0.083467     -0.664427
O       1.75791     13.54685      0.12295         0.279498      0.571175     -1.806673
O       1.92099     13.66599     12.74672        -0.086868     -0.971556     -0.526196
O      13.35205      1.92217      0.14147         1.210497     -0.726736     -2.126139
O      13.60109      2.04507     12.75296         0.726696      0.084351      1.018122
O      13.97996     13.65676      0.23954        -1.690156      0.113635      1.576473
O      13.62654     13.27305     12.41141        -0.379405     -0.041370      1.316128
O       2.09972      1.76373      4.51982         0.427032      0.219967     -3.039158
O       2.06911     13.40838      4.30789         0.006427     -0.243957      0.165299
O      13.70414      1.88058      4.38776        -0.457985      0.051980      0.177559
O      13.68518     13.87860      4.32105        -0.377058     -0.932281      0.153152
O       1.94964      1.94507      8.50948         0.228156     -0.794500      2.885597
O       1.87595     14.05452      8.62720        -0.253442     -1.087077     -0.147441
O      13.59643      2.02832      8.54901         0.502527      0.003104      0.135348
O      13.99554     13.84637      8.43481        -0.453325     -0.782872      0.830587
O       1.78998      5.60391      0.29444         1.028643      1.218516     -1.475610
O       1.75839      5.96764     12.56657         0.775639     -0.666016      0.087058
O      13.93219      5.97123      0.30881        -0.841975      0.339108     -3.149319
O      13.77612      5.83278     12.56668        -0.119174      0.145931      0.242272
O       1.64807      5.57023      4.23088         1.260739      1.115271      0.592480
O      13.83262      6.03294      4.08659        -0.155602     -1.723013      1.816154
O       2.07710      5.88407      8.52413         0.131295      0.639229     -2.480955
O      13.87362      5.87941      8.31818        -1.179684      0.647255     -1.405876
O       1.88142      9.62206      0.21898         0.321606     -0.236503     -0.102545
O       1.97966      9.71472     12.65623        -0.050819     -0.326768     -0.973426
O      13.63412      9.58973      0.08114        -0.426785      0.573751      0.647724
O      13.51944      9.86980     12.58996         0.350001      0.211176     -0.153232
O       1.93200     10.10202      4.27209         0.088938     -0.003766      0.868841
O      13.74925      9.82089      4.16947        -0.681799     -0.029176      0.844364
O       2.10552      9.47172      8.08565        -0.678317      0.376185      2.663002
O      13.76283      9.46771      8.33241        -0.323180      0.029428     -1.079434
O       5.71651      2.01146      0.45448         0.560945     -0.111304     -1.961963
O       5.72193      2.05411     12.92707         0.485382      0.174182     -2.513632
O       5.81982     13.43414     16.55359         0.620405      0.439110      0.914601
O       5.56184     13.49268     12.46449        -0.087271      0.362363      0.598903
O       5.83824      1.89129      4.47717        -0.242665     -0.311303     -1.483503
O       5.47129     13.49562      4.27036         1.965312      0.306383     -0.674553
O       6.01807      2.17572      8.42499        -0.674266     -1.917716      2.211926
O       5.79760     13.31513      8.39217        -0.746146      1.569995      0.600926
O       5.89521      5.92866      0.22217        -0.986978     -0.680699      0.450503
O       5.87535      5.61637     12.80341         0.094828      0.120761      0.321151
O       6.10440      5.76805      4.35027        -1.093378     -0.368587      1.593066
O       5.85490      5.86694      8.51094        -0.229317     -0.255297      1.112655
O       5.95386      9.66407      0.25615         0.134642     -0.077483      1.517496
O       5.64139      9.84248     12.67909         0.169290     -1.014813     -0.952290
O       6.07292      9.57408      4.37186        -0.808423      0.413624      0.228619
O       5.73224      9.56443      8.68140         0.120280      0.262374     -0.240411
O       9.73695      2.18929      0.24012         0.855686     -1.215345     -1.064003
O       9.84431      1.66859     12.55423        -0.823342      0.628633      2.289832
O       9.74048     13.85275      0.20575        -0.004042     -1.178629     -0.816149
O       9.58058     13.86679     12.67779         0.456819     -0.627883      1.096715
O       9.64506      1.47814      4.24031         0.632088      1.523267      1.703549
O       9.92595     13.75613      4.40367        -0.017836     -1.123538     -0.934805
O       9.79562      1.83769      8.46330        -0.893212      0.451811     -0.633002
O       9.62705     13.36839      8.71401        -1.053869      1.127371     -0.243512
O      10.09740      5.87594      0.28389        -1.860630     -0.670737      0.921113
O      10.04141      5.92394     12.75285        -0.909048     -0.740607      0.648953
O       9.74085      5.90820      4.40503         0.654909     -0.674992     -1.275195
O       9.63471      5.56352      8.68243         0.717757      1.047242      0.517771
O       9.66348      9.60950      0.30362        -0.348869      0.497551      0.042792
O       9.73441      9.40884     12.54453         0.191737      0.921694      1.431989
O      10.05513      9.70594      4.38546        -0.285534     -0.588335      1.423686
O       9.76952      9.55884      8.50983         0.100778     -0.282123      0.625644
O       3.87815      1.86206      2.35421        -0.232795     -0.389371      0.785198
O       3.85440      1.77226     14.84418         1.963469      0.168639      0.388020
O       4.07013     13.52572      1.94856         0.255980      0.758014      0.453468
O       3.69172     13.64573     14.80378         1.286730     -0.016642     -0.332019
O      15.52715      2.07103      2.47089         0.987207     -0.375752     -1.047556
O       0.09925      1.81695     14.96967        -2.101170      0.504601     -0.267354
O       0.14915     13.56726      2.05588        -1.409131     -1.128280      1.778601
O      15.32383     13.58597     14.55895         1.766617     -0.467141      0.123582
O       3.96180      1.73759      6.74248        -0.222456      1.148864     -0.733579
O       3.93586     13.45365      6.37138        -0.100999     -0.432177      0.779426
O       0.16168      1.56384      6.33152        -2.214428      0.976324     -0.143592
O       0.13520     13.81346      6.17877        -2.045090     -0.430959      0.283642
O       3.94800      1.92006     10.67943        -1.270095     -0.234421     -0.224156
O       3.62254     13.90346     10.79783         2.147368     -1.140731     -1.238111
O      15.59785      2.11604     10.71625         1.442365     -0.155157     -0.035380
O      15.55530     13.65660     10.86926        -0.018568     -0.571878     -0.167437
O       3.75720      5.95681      2.42348         1.538717      0.203179     -0.188370
O       3.71444      5.79719     14.67869         2.199454      0.165485      0.207651
O       0.08537      5.69102      2.04894        -1.924806     -0.294558      1.079246
O       0.12870      5.76181     14.62042        -2.831539      0.241316      0.543893
O       3.76360      6.04478      6.19340         2.389283     -0.589412     -0.322927
O       0.12615      5.83137      6.42417        -2.536247     -0.447390      0.232631
O       3.84451      5.64385     10.88519         2.326669      1.228805     -0.902735
O       0.03864      5.83906     10.38519        -0.617865      0.691192     -0.071357
O       3.93468      9.49812      2.22105         1.895321      0.028054      0.492309
O       3.82844      9.50348     14.81354         0.411970      0.203671     -0.011639
O       0.17663     10.13918      2.15576        -2.619752     -0.129747      0.293702
O      15.51132      9.75975     14.80263        -0.785226      0.566557     -0.576852
O       4.04388      9.63106      6.33779        -1.321589      0.307485     -0.349817
O      15.46181      9.74988      6.25419         1.900736      1.214598      0.060303
O       3.85300      9.28991     10.65430         0.069013      1.767690     -0.472783
O       0.07109      9.82318     10.59926         0.523623     -0.902675     -0.000433
O       7.90021      1.89577      2.10855        -0.238345     -0.345015      0.579906
O       7.76355      1.83550     14.78311         0.443536      0.668930      0.302808
O       7.82832     13.88716      2.32993         0.831336     -1.816972      0.230588
O       7.52961     13.66342     14.26584         1.084073      0.342311      0.912193
O       7.83873      1.95400      6.40518        -0.077069     -1.377566      0.209852
O       7.66858     13.68167      6.25366         1.251832     -0.440958     -0.014767
O       7.79390      2.01084     10.46535        -0.449461     -0.491292      0.629190
O       7.55690     13.52407     10.73119         0.685851      0.557125     -0.327431
O       7.83953      5.69132      2.34307         2.012207     -0.321918     -0.439626
O       7.76192      5.78456     14.84354         1.030775     -0.886582     -0.607725
O       7.83543      5.85975      6.26768         0.299882     -0.945552      1.137977
O       7.87049      5.85933     10.66366        -1.756246     -0.489838      0.471599
O       8.00294      9.97981      2.64903        -3.652044     -1.045543     -0.649851
O       7.65605      9.68123     14.52448         1.110113     -0.882417      0.968370
O       7.90477      9.43028      6.44426        -0.765054      0.272072      0.266822
O       7.78683      9.74673     10.50081         0.024812     -0.312157      0.364766
O      11.91246      1.65698      2.39742        -4.233232      1.800477      0.120626
O      11.70509      2.12117     14.81911         0.269849     -0.752958     -0.588020
O      11.81968     13.73634      1.97552        -1.404560     -0.644615      0.423412
O      11.71349     13.40415     14.65677        -4.063108      0.737844      0.644874
O      11.74813      1.88162      6.55166        -1.148697      0.518766     -1.112256
O      11.61024     13.66460      6.64482         0.326491     -0.012204     -0.616735
O      11.63669      1.73432     10.69144         1.706177      1.667188     -0.538654
O      11.79481     13.52586     10.60581         0.602602      0.007379      0.043494
O      11.81206      5.83436      2.36132        -0.420625      0.750027      0.461761
O      11.73126      6.01164     15.07371         0.867448     -1.197612     -1.745697
O      11.65630      5.60101      6.34668         3.186786      0.364386      0.302586
O      11.80188      5.79757     10.67756        -0.628602      0.375197     -0.359958
O      11.78443      9.53554      2.23762        -1.376423     -0.022814     -0.014718
O      11.50102      9.28435     14.85047         2.382685      1.429063     -0.696814
O      11.69289      9.38807      6.55944         0.352871      0.662838     -0.758774
O      11.68912      9.98306     10.54118         0.258714     -1.183867     -0.072778
O       2.13112      3.83993      2.41457        -0.244341     -1.167803     -0.461367
O       2.02564      3.85294     14.94089        -0.370955     -1.212374      0.195984
O       1.89824     15.44388      2.14548         0.581215      0.803510      0.733512
O       1.69723     15.49530     14.56311         1.003043      1.007376      1.451604
O      13.51605      3.85527      1.93026        -0.083421      0.580659      1.249615
O      13.65037      3.97644     14.70218         0.396951     -0.661306      0.897969
O      13.56811      0.04306      2.18596         1.285660     -2.411183     -0.394350
O      13.33317     15.50890     14.48316         0.722499      1.433937      0.743828
O       1.88981      3.76456      6.49701         0.612524      0.994037     -0.266198
O       2.14982     15.49188      6.36947         0.589871     -0.751590      0.270360
O      13.67891      3.81990      6.53885         0.532323      1.039150     -1.092460
O      13.69691      0.03030      6.59700        -0.206262      0.300719     -0.758474
O       1.91384      4.04372     10.34851         0.394415     -5.255453      0.570396
O       1.67440      0.01671     10.78315         1.163189      2.260999     -0.217879
O      13.76835      4.01728     10.42656        -0.517149     -1.622421      0.365053
O      13.88001      0.22817     10.62044        -0.180070     -1.605296      0.318416
O       1.68562      7.82674      2.65791         1.018906      0.890774     -1.322270
O       1.76141      7.82240     14.82091         0.130079     -0.751067     -0.028621
O      13.93385      7.86215      2.28705        -0.233082      0.558164     -0.716116
O      13.77251      7.77788     14.64788        -0.120535      1.296398      0.310137
O       1.74830      7.92244      6.08484         0.925070     -0.686971     -0.006647
O      13.90817      7.73855      6.01093        -1.467629     -1.102883      1.170943
O       2.04193      7.58641     10.38278        -0.537189      4.754818      0.363376
O      13.77108      7.76214     10.61680        -0.438308      1.788459     -0.271695
O       2.43591     11.76061      1.93543        -1.045651     -1.707979      1.334891
O       2.05075     11.58256     14.86277        -0.637063      0.743782     -0.856027
O      13.49584     11.64789      2.40766        -0.208696      1.227172     -0.939010
O      13.44058     11.76223     15.08441        -0.047509     -2.863848     -0.891875
O       1.80044     11.70454      6.84585         0.592216      0.008336     -1.434309
O      13.62247     11.87124      6.56582         0.261053     -1.325737     -0.620489
O       2.04325     11.71747     10.39546         0.440241     -0.792818      0.632196
O      13.86409     11.51927     10.02293        -0.403491      1.561441      1.445951
O       5.82584      4.00721      2.43986        -0.595749     -2.659513     -0.083130
O       5.81825      3.86090     15.15569        -0.419424     -0.335118     -0.963447
O       5.95530     15.49808      2.06733        -0.544815      0.804149      0.901046
O       5.70308      0.05682     14.84139         0.210894     -1.467522      0.116859
O       5.76054      3.78780      6.56707        -0.213718      0.884865     -0.772125
O       5.65334     15.54012      6.41189         0.951963     -1.046207      0.478571
O       5.79049      3.88123     10.65517         0.270597     -0.366919     -0.216177
O       5.90530     15.58039     10.55672        -0.681885     -0.092117     -0.021873
O       6.11845      7.50923      2.48612        -0.618234      4.927640     -0.542493
O       5.81776      7.64061     14.82153         0.146733      1.134706     -1.072978
O       5.94508      7.57051      6.41565        -0.406527      2.926321      0.642024
O       5.91705      7.69821     10.78695        -0.109241     -0.041987      0.224219
O       6.00051     11.58939      2.33651        -0.061499     -0.509005     -0.058873
O       5.79374     11.57136     14.74138        -0.209830      0.476354      0.044694
O       6.09311     11.49916      6.37697        -0.175747      0.286514      0.063725
O       5.76211     11.58855     10.40358        -1.152173      1.062099      0.596904
O       9.95214      3.81692      2.56892         0.417628     -0.245063     -0.273030
O       9.67037      3.80230     14.40630         0.189769     -0.784741      0.499771
O       9.82789     15.55173      2.32453         0.660607     -0.760787     -0.915371
O       9.71559     15.58984     14.76237         0.458012     -0.133618      0.248700
O       9.52645      3.83612      6.56663         1.064804     -2.095362     -0.368429
O       9.71971     15.44248      6.55737        -0.458768      1.294501      0.262453
O       9.85977      3.77615     10.66834        -0.520982      0.728030      0.649584
O       9.97159     15.55562     10.48313        -1.765246     -0.551375      0.138874
O       9.64700      7.72888      2.41655         0.911630      0.192135     -0.217210
O       9.53649      7.57671     14.85649         0.330368      1.840056     -0.880173
O       9.78583      7.45112      6.66568         0.149345      2.317587      0.172243
O       9.85122      7.71121     10.73397        -0.159853      1.125285     -1.288085
O       9.89148     11.57462      2.49406         1.048026      2.213757     -0.524916
O       9.55572     11.55130     14.60801         0.560208      0.192036      0.120665
O       9.88284     11.65232      6.53831        -0.499679     -1.278017     -1.326705
O       9.67385     11.79776     10.70619        -0.323073     -2.421992      1.060682
