  # total energy = -7841.92006708 
CRSYTAL
PRIMVEC
    15.6080000000000005    0.0000000000000000    0.0000000000000000
     0.0000000000000000   15.6080000000000005    0.0000000000000000
     0.0000000000000000    0.0000000000000000   16.6239999999999988
PRESSURE
3.76816 4.11527 2.40662 -0.281789 0.113997 0.071293
PRIMCOORD
320 1
Pb       3.52067      3.98421      4.06396         0.840930     -2.231777      1.537123
Pb       3.76717      3.97793      0.24214        -0.097281      0.153842     -0.676963
Pb       3.67725      0.01952      4.22744         1.247705      0.087387     -0.912936
Pb       3.91058     15.45334     16.26881        -0.016006      1.124691      0.639373
Pb      15.43534      3.95762      4.12341         1.005488     -0.070984      0.831334
Pb       0.10764      3.73098     16.41550        -0.233404     -0.006967     -0.176323
Pb       0.18375     15.40968      4.30900        -1.426586      0.838356     -0.362018
Pb       0.09479     15.38244      0.05958        -0.371760      0.882503     -0.457998
Pb       3.93779      3.93179      8.34613        -0.314952      0.277437      1.004614
Pb       3.89392     15.51888      7.91209         0.520688      1.349285      1.879928
Pb      15.58622      4.01141      8.37515        -0.071174     -0.624967      0.451351
Pb       0.22401      0.30916      8.62054        -1.102404     -0.207045     -1.517114
Pb       4.19931      3.79451     12.48029        -1.276973      1.467634      0.216203
Pb       3.90456     15.41886     12.37775        -0.553978     -0.277239      1.419782
Pb      15.46616      3.76921     12.40389        -0.076424      0.099953     -0.167501
Pb       0.11645      0.28851     12.58242        -0.529396     -1.629690      1.074036
Pb       3.75364      7.62770      4.31179         0.071356      0.229122     -0.055289
Pb       3.79438      7.92771      0.08195        -0.681933     -0.116391      0.168767
Pb      15.35754      8.05135      4.29736         1.533000     -1.593101      0.218982
Pb      15.41279      7.85361      0.28561         0.411276      0.975740     -1.268206
Pb       3.66223      7.87517      8.13529        -0.312592     -1.285531      0.666502
Pb      15.52568      7.55688      8.40663         1.684201      0.443322     -0.344015
Pb       4.07789      7.97171     12.32000        -0.692923     -1.187566     -0.321259
Pb       0.03273      7.71329     12.68427         0.741136      0.803032      0.193744
Pb       4.16398     11.44661      3.81799        -0.429983      0.313626      0.874904
Pb       4.15980     11.55207     16.36698        -0.404364      0.302776      0.527525
Pb      15.33880     11.74138      4.35661         1.260746      0.336544      0.001115
Pb      15.60006     11.65669      0.19696         0.736825     -0.553198     -0.565520
Pb       4.16345     11.67316      8.53824        -0.883464     -0.173521     -1.338525
Pb       0.04920     11.43022      8.71561        -0.266420     -0.028021     -1.654002
Pb       3.51874     11.69849     12.24137         1.461235     -0.364679      0.744043
Pb       0.02210     11.63896     12.42912        -0.152728      0.487350      0.703253
Pb       7.72540      3.94570      4.44222        -0.876921      0.692148     -0.653052
Pb       7.88483      3.72621      0.23889        -0.438128      0.494461     -1.228520
Pb       7.31723      0.17338      4.05098         1.387097     -0.974088      0.490685
Pb       7.90229      0.25284      0.25142        -0.809041     -0.525265     -1.259863
Pb       8.12364      3.87565      8.75036        -0.825188     -0.161410     -0.924136
Pb       7.83574      0.18259      8.36317         0.829092      0.424623     -1.010225
Pb       7.82041      3.57020     12.70053        -0.305991      1.097757      0.110052
Pb       7.61158     15.35478     12.34704         0.926062      0.945663      1.393747
Pb       7.95367      7.74095      3.99209        -0.214850     -0.032206      0.934699
Pb       7.98576      7.77152     16.37644        -0.141932      1.090595      0.176953
Pb       7.87845      7.56189      8.13618        -0.538967      0.866012      0.843803
Pb       7.71186      7.61628     12.43824        -0.213548      0.664522      0.172162
Pb       7.71652     11.78242      4.33367         0.562354     -0.117912     -0.563714
Pb       7.57106     11.37616      0.00447         1.055263      0.357205     -0.722133
Pb       7.60581     11.91417      8.66311         2.592118     -1.531552     -0.652945
Pb       7.51089     11.91613     12.44643         1.199804     -2.271800      2.115533
Pb      11.90386      4.11092      4.03346        -0.290378     -0.942527      1.616605
Pb      11.66486      3.80487      0.18892         1.103226     -0.260238     -0.686021
Pb      11.46374      0.24674      3.80559         1.364047     -2.055059      0.742525
Pb      11.50578     15.47993     16.51279         0.461381      0.966620      0.751097
Pb      11.56530      3.71599      8.16917        -0.013291     -0.230094      2.098791
Pb      11.41500     15.57308      8.42595         1.049093      0.642577     -0.699508
Pb      11.78377      4.16782     12.56048        -0.086086     -1.453760      0.426317
Pb      11.81525      0.24899     12.43809        -0.365670     -0.851162      0.591924
Pb      11.91436      8.01602      3.89537        -1.074575     -1.387346      0.831134
Pb      11.32417      7.77455     16.53946         2.547019      0.964047     -0.102040
Pb      11.27769      7.84018      8.00388         0.448607      0.619879      0.809356
Pb      11.83861      7.89696     12.21696        -1.823827      0.148767      2.004078
Pb      11.64631     11.94901      4.34395        -0.945501      0.795479     -0.205897
Pb      11.54068     11.80928      0.33907        -0.093939     -0.356429     -1.119635
Pb      12.07771     11.37125      8.29347        -1.824832      1.344804      0.797921
Pb      11.69027     11.82841     12.47002        -0.112422     -0.713710      0.128617
Ti       1.94074      1.95818      2.04722        -0.386803     -0.756326     -2.227584
Ti       1.89857      1.96204     14.52555         1.544080     -0.703315      2.271712
Ti       2.04735     13.71394      2.12313         0.726081     -1.531520      1.768185
Ti       2.02275     13.44260     14.72285        -0.419458      1.071695     -0.594628
Ti      13.77045      1.97505      2.19484         0.887171     -3.355937     -1.445465
Ti      13.55897      1.78846     14.78628         0.540557      2.247366     -0.736734
Ti      13.68148     13.68943      2.21716        -0.569482      1.420920     -0.635101
Ti      13.71481     13.57842     14.78617         0.960802      0.121738     -1.013699
Ti       1.84164      1.83941      6.28243        -0.899673      0.779067      2.818399
Ti       2.12800     13.51140      6.20918        -1.459378     -2.070466      3.531912
Ti      13.48044      1.79922      6.39856         1.026159      0.362365      0.782534
Ti      13.83249     13.63470      6.42469         0.023339      0.920265      1.503472
Ti       2.16429      1.80122     10.53663         0.456018      1.940405      0.810081
Ti       1.77488     13.51981     10.16246         1.239430      0.762431      3.820623
Ti      13.60744      1.76133     10.39636        -0.094819      1.870574      0.618661
Ti      13.61753     13.65399     10.46819         0.756513     -0.502919     -1.293938
Ti       1.84357      5.89272      2.21467         0.161344      0.969073      0.794295
Ti       1.99920      5.84541     14.52101         1.169269      0.799455      0.633450
Ti      13.73128      5.77652      1.94094        -1.041477      0.516191      1.459661
Ti      13.70341      5.71862     14.63049        -0.287261      0.667863      2.634349
Ti       1.81769      5.46870      6.38044         0.670637      4.492756      0.393922
Ti      13.51573      5.90222      6.51815         1.072431     -0.495127      3.107836
Ti       1.92912      5.93301     10.77125         2.588326     -1.356496     -1.843220
Ti      13.59236      5.87108     10.40329         0.674903     -2.344926      1.523123
Ti       1.99455      9.68344      2.49339         0.931216      0.909661     -2.285899
Ti       1.95935      9.65861     14.64119        -1.255210     -0.692042     -0.072999
Ti      13.64770      9.89255      2.27546         1.540108     -0.394247     -2.538274
Ti      13.68275      9.83388     14.65997        -0.384658     -1.683022      1.242940
Ti       2.15429      9.74494      6.21825        -0.061229     -0.670738      1.344117
Ti      13.67366      9.72677      6.33665         0.380499     -0.063998     -0.146239
Ti       1.89493      9.68011     10.38130         1.499989     -2.461635     -0.742939
Ti      13.72261      9.71750     10.66686        -0.241301      0.299219     -1.515352
Ti       5.80627      2.00538      2.03165        -1.602075     -0.994753      0.720060
Ti       5.64000      2.08495     14.63910         1.987250     -0.752682      0.716271
Ti       5.93260     13.63394      2.01424        -1.540569     -1.703330     -0.273105
Ti       6.13469     13.77527     14.77919        -1.398065     -0.659073     -1.259242
Ti       5.68888      1.98512      6.23026         1.067545     -0.155425     -0.528610
Ti       5.97649     13.63856      6.24179        -1.084885     -1.216886      2.194136
Ti       5.87863      1.94545     10.63239        -0.227481     -0.320687      0.065778
Ti       5.82263     13.64835     10.50450        -1.457758     -0.548682      1.113740
Ti       5.90140      5.70732      2.21352        -0.215185      0.110965     -1.301628
Ti       5.95035      5.89951     14.83544        -1.413678     -0.265540     -2.195823
Ti       5.69375      5.77544      6.41518         1.587922      0.970975      0.384649
Ti       5.88955      5.74074     10.32507        -3.209588      2.645641     -0.313189
Ti       6.03647      9.49053      2.18497        -2.226733      1.609079      0.502737
Ti       5.78650      9.67979     14.41730         2.938228      0.951448     -0.707331
Ti       5.98293      9.77253      6.46881        -0.370244      0.058149     -2.043763
Ti       5.95960      9.71405     10.33025         1.195353     -1.362542      4.076986
Ti       9.75807      2.06918      2.13665        -0.381423     -1.909340      0.547376
Ti       9.69648      1.89409     14.69877         0.277498     -1.055759      0.418515
Ti       9.50594     13.58394      1.85060         0.760079     -1.605379      1.627807
Ti       9.82507     13.57787     14.56694        -1.676148     -0.234684      2.647738
Ti       9.69888      2.09905      5.99440        -0.114368     -4.981900      3.670170
Ti       9.78814     13.70300      6.42723         0.118830      0.295169     -1.075648
Ti       9.82281      2.00424     10.78760        -0.865626     -1.448681     -1.573386
Ti       9.92145     13.66405     10.42484        -0.197576      0.957848      0.043008
Ti       9.76064      5.78707      2.02674         0.262071      0.239173     -0.296180
Ti       9.75418      5.67278     14.68670         0.758196      0.752193     -0.631676
Ti       9.74418      5.69297      6.32799        -1.156827      1.866523      0.080666
Ti       9.67026      5.85573     10.59833         0.126192      0.498060     -0.072861
Ti       9.77664      9.88097      2.08800        -1.032701      0.480988      0.554006
Ti       9.82919      9.92875     14.45101        -1.593073     -2.081001     -0.391070
Ti       9.71119     10.04995      6.19388        -0.609215     -1.433026      1.444919
Ti       9.78436      9.81524     10.43568        -1.665483     -0.205381     -1.040431
O       1.97203      2.00625      0.16804        -0.150499     -0.094937      1.307715
O       1.91867      2.03568     12.78891         0.033522     -0.443534     -3.231317
O       1.81683     13.44549      0.41431         1.121117      0.891609      0.224418
O       2.00160     13.60681     12.95602        -0.230407     -1.220880     -0.632544
O      13.75055      1.63197      0.41978        -0.075001      0.884197      0.133459
O      13.68020      1.93009     12.91315         0.278303     -0.517091     -0.708733
O      13.94751     13.63365      0.35514        -1.083541      0.380758      0.727294
O      13.65937     13.55480     12.96971        -0.125693      0.038638      0.000524
O       1.76973      1.98456      4.61550         0.054688     -0.027168     -3.309105
O       2.06825     13.93301      4.59315         0.385099     -0.569024     -3.835032
O      13.46103      1.90426      4.60486         0.650475      0.417564     -0.606484
O      13.48259     13.39895      4.69153         0.093851      0.941224     -1.870077
O       2.20913      2.03610      8.80572        -0.676954     -1.186985     -0.420369
O       1.76160     13.22970      8.50899         0.677493      1.082246     -1.969903
O      13.71305      1.78712      8.66286        -0.127865      0.044804      0.081136
O      13.45163     13.44907      8.69484         1.749501      0.417299     -0.533238
O       2.23039      5.84958      0.46042        -0.419731      0.027233     -0.239382
O       1.97091      6.03901     12.69497        -0.568534     -1.045651      0.279564
O      13.20164      5.74419      0.33944         1.332169     -0.067426     -1.615419
O      13.71835      5.43840     12.90557         0.784626      1.436950     -1.453237
O       2.09826      5.77968      4.28195        -1.117198     -0.646859      1.618507
O      13.85195      5.53242      4.94583        -0.268155     -0.779354     -6.172348
O       1.88597      6.05197      8.52693        -0.032320     -0.582772     -1.195730
O      13.46981      5.80395      8.68149         0.272587      0.487756     -0.968537
O       1.81307      9.61387      0.13842         0.489657     -0.662244      0.004783
O       1.92205      9.47700     12.70612        -0.435963      1.992499      1.001415
O      14.00217      9.90388      0.32880        -0.935836     -1.072418      1.843675
O      13.66765      9.40957     12.84643         0.073403      1.485563     -1.055943
O       2.18985      9.47956      4.33055        -0.045042      0.360768      1.590298
O      13.62340      9.60179      4.36115        -0.382507      0.784328      0.086106
O       1.84240      9.69275      8.26062        -0.361998      0.188701      3.014220
O      13.89236      9.88824      8.79766        -0.936773     -1.536773     -0.916748
O       5.82594      1.82950      0.25307         0.086860      0.616388     -0.707556
O       5.80984      1.97457     12.83480         0.077214      0.118384     -0.297131
O       5.96519     13.71699      0.21401         0.216333     -0.116523     -0.513317
O       6.05347     13.71329     12.80367        -2.271894     -0.642958     -0.115024
O       5.74690      1.80201      4.40828         0.266133      0.349919      0.521986
O       6.16090     13.56818      4.55087        -0.448735      0.523481     -2.742173
O       5.74068      1.83009      8.91515         0.511224      0.018335     -2.325657
O       6.04595     13.47495      8.73251        -1.805288      1.151766     -0.413750
O       5.75914      5.56089      0.20311         0.239302      0.334316      2.622352
O       6.02848      5.97685     12.86028        -0.559207     -0.030085      0.884502
O       6.27051      5.99314      4.66037        -0.991102     -0.938161     -0.132957
O       5.75587      5.57325      8.52251        -0.165158      0.347124     -0.400420
O       5.93140      9.83579      0.46427        -0.910353     -1.268857     -2.063617
O       5.87205      9.61213     12.61361         0.212359     -0.238638      0.779886
O       5.82038      9.56973      4.47167         0.704006      0.103228      0.548932
O       5.99073     10.04207      8.63994        -0.529062     -0.083310     -2.421825
O       9.69315      1.72324      0.39861         0.823866     -0.732720     -0.797816
O       9.75591      2.07300     12.90474         0.195896      0.311543     -0.156166
O       9.43747     13.10540      0.10966         1.192602      2.249401      0.412390
O      10.09270     13.41781     12.90300         0.084662      0.314332     -3.487139
O       9.78819      2.07631      4.27022         0.122240     -0.070651     -2.532950
O       9.68011     13.34611      4.50444         0.137825      0.877283      1.423944
O       9.80029      2.02542      8.86985        -1.195715     -0.792595      0.560212
O       9.69692     14.09133      8.62674        -1.344423     -1.439247      1.346514
O      10.06117      5.85670      0.11915        -1.078699     -0.800389      2.773817
O       9.40358      5.57365     12.88236         0.312844      0.093785     -0.532877
O       9.65406      5.50149      4.58514         0.250015      0.336131     -0.471627
O       9.79897      5.66707      8.70454         0.138597      0.312313      0.736103
O       9.85291      9.79342      0.29526         0.134510     -0.288341      0.805178
O       9.81656      9.91022     12.65478         0.742909      0.183016     -1.191081
O       9.48619      9.78258      4.38976         1.284424      0.202027     -0.459430
O       9.87347      9.87821      8.54325        -0.538281     -0.959249      2.109095
O       3.87169      2.07128      2.15953         0.555257     -0.520965      0.770705
O       3.89547      1.88975     14.73404        -0.381365      0.302381      0.548116
O       4.05816     13.52902      2.43636        -3.156670      0.262311     -0.095292
O       4.07807     13.62849     15.00653        -1.468371     -1.029006     -0.487860
O       0.05044      1.65974      2.27803         0.279463      0.588825      0.820271
O       0.16172      1.88868     14.77729        -2.204699      0.763915      0.494494
O      15.53832     13.82389      2.66791         1.941738     -1.495665     -0.357155
O       0.09670     13.52670     15.08388        -0.011831      0.101455     -0.704252
O       3.86378      1.82454      6.39985         0.030529     -0.473891      0.712119
O       4.01127     13.82516      6.58552        -1.313411     -1.392126     -0.711104
O       0.01758      2.14229      6.91506         0.124291     -0.857410     -0.657247
O       0.16097     13.45864      6.27529        -1.565319     -0.085685      0.119793
O       4.03610      2.01978     10.93416        -2.848586     -0.942388      0.217651
O       3.81719     13.30120     10.49301        -0.150266      0.271563      0.252474
O      15.60161      1.50260     10.69252         0.794780      1.920746     -0.542684
O      15.52368     13.59262     10.69618         1.087937      0.021221     -0.173894
O       4.06567      5.46782      2.69300         1.120840      2.658426     -2.594108
O       3.83534      6.17950     14.94394         0.699518     -1.392505     -0.495500
O      15.58262      5.84443      2.50006         0.569459     -0.340111     -0.719557
O      15.58591      5.80543     15.04332        -0.112416     -0.054500     -0.416108
O       3.81950      5.74135      6.48271         0.876287      0.246270     -0.231506
O      15.58837      5.57107      6.55335         0.550170      0.260866      0.939438
O       3.80123      6.10507     10.55321         0.963232     -0.163761      0.466253
O       0.13355      5.83007     10.40437        -3.590280      0.293602      0.762230
O       3.91012      9.44913      2.19167         0.523248      0.835292      0.893018
O       3.99546      9.91661     14.45821        -1.237861     -1.075711      1.477489
O       0.13886      9.53889      2.60777        -2.804986      0.384015     -0.468457
O      15.58396      9.80713     14.69158         0.169391     -0.508160     -0.201198
O       4.00635      9.68085      6.68347        -0.605734     -0.388910     -0.550904
O      15.44605      9.61875      6.36314         0.949307      0.922414     -0.392407
O       3.76747      9.82342     10.67216         1.186386      0.100487     -0.783298
O       0.05523      9.71451     10.61370        -2.580845     -0.026503      0.703676
O       7.80716      2.12524      2.10313        -0.319399     -2.069213      1.007468
O       7.88959      2.05161     15.04888        -1.211005      0.164896     -0.356067
O       7.69777     13.33412      2.31900         1.095071      0.187102      0.356384
O       7.87222     13.51873     14.49006         1.265047      0.374682      0.866468
O       7.91471      2.00890      6.39479        -1.332107      0.034642      0.016233
O       7.65527     13.22314      6.73240         2.314425      1.020965     -0.416238
O       7.69810      1.82361     11.06515         0.704661      0.494552     -1.269178
O       7.65976     13.45133     10.87016         2.360702      2.200444     -1.731543
O       7.93391      5.60842      2.62297        -0.392573      0.444975     -1.422697
O       7.82470      5.82647     15.05065         0.114637     -0.846043      0.300174
O       7.80519      5.63956      6.93830         1.354735     -0.851990     -1.394264
O       7.62645      5.73844     10.52288         3.864080     -0.042396      0.347152
O       7.84190      9.84019      2.15273         1.499603     -0.944091      0.977926
O       7.92415      9.80844     14.84188        -0.597425     -1.065926      0.525102
O       7.89315     10.03930      6.65606        -1.568170     -0.408310     -0.308295
O       7.83682      9.82272     10.73475         0.210779      0.175514     -0.892641
O      11.83919      1.95573      2.29023        -1.779757      0.218992      0.433819
O      11.73668      1.72800     14.99335        -0.847278     -0.832287      0.067469
O      11.57852     13.63403      2.28865         0.685662     -0.222641     -0.348373
O      11.75478     13.81965     15.01231         0.871550     -0.998879      0.077755
O      11.70470      1.55977      6.68947        -0.613517      1.580981     -0.698973
O      11.55464     13.73129      6.76143         0.729836      0.122984     -0.773169
O      11.63233      1.87769     10.70132         1.890566      0.319404      0.628136
O      11.78772     13.81536     10.50096        -2.284987     -0.593651      1.547739
O      11.70724      5.52428      2.37436         0.567681      0.584944      0.219465
O      11.59745      5.58258     14.52596         0.846890      0.190303      0.465329
O      11.76775      5.99071      6.43354        -4.301593     -0.396780      0.196681
O      11.57513      5.85370     11.06298         0.421215      0.135978     -1.469872
O      11.79070      9.62979      2.31505        -0.124809      0.656236     -0.029383
O      11.60824      9.87324     14.81982         3.364429     -0.688813      0.386702
O      11.56509      9.71993      6.66238         1.690962     -0.848040     -1.287696
O      11.68674      9.53582     10.51542         1.413815      0.074721      0.829950
O       1.98022      3.80353      2.22526        -0.769195      1.144362      0.841799
O       1.76694      3.95247     14.78220         1.282150      0.107296      0.180191
O       2.08770      0.02601      2.53481         0.021408     -1.128982     -0.549205
O       2.09286     15.58222     14.66084        -0.174695     -0.434641      1.189678
O      14.05666      3.78625      2.35478        -1.659001      1.525098      0.001643
O      13.54699      3.72473     14.92089         0.915717      1.049535      1.058164
O      13.68974     15.43764      2.68251        -1.222571      1.473659     -0.059107
O      14.12189      0.12951     14.97217        -0.983692     -4.057163     -0.136949
O       2.03924      3.76955      6.67055         0.103773     -0.388958      0.055391
O       1.75486      0.01235      6.45634         1.030414     -0.982046      1.371880
O      13.27560      3.79790      6.88775         1.914742     -0.424907     -1.473660
O      13.86042     15.46408      6.71562         0.137598      0.610117     -0.358707
O       2.09908      4.02098     10.61857        -0.484776     -1.449052      0.643962
O       2.15365     15.36088     10.69783        -0.461487      1.452229     -0.736063
O      13.61910      3.88911     10.87362         0.477403     -0.244619     -1.146595
O      13.52303     15.57094     10.74172         0.501338     -0.311615      0.341507
O       2.05811      7.78047      2.42483        -0.229716     -2.917349     -0.445697
O       1.95724      7.73301     14.65193        -0.822887      1.208669      1.060220
O      13.78219      7.67264      2.34128        -1.009903      0.052509      0.276829
O      13.63130      7.64051     15.16876        -0.161477      0.434935     -0.904440
O       2.00539      7.82213      6.44484        -0.003563     -0.620013     -0.535300
O      13.64310      7.81798      6.54240        -0.238015     -0.181735      0.362117
O       1.83028      7.93131     10.89410        -0.138172     -0.924861     -1.433266
O      13.69688      7.63818     10.92726         0.443155      0.802315     -0.964733
O       1.80198     11.54804      2.67427         0.711424      1.912074     -0.684756
O       2.03997     11.56818     14.99870         0.109673      0.981814     -0.758784
O      13.74335     11.74335      2.36179        -0.157540     -1.440675      0.631008
O      13.79782     11.64311     14.94668        -0.871717      1.268981     -0.358313
O       2.06782     11.56729      6.35213         0.059499      1.736325     -0.679675
O      13.51139     11.67296      6.37108         0.175376     -1.734782      1.060785
O       1.68208     11.53961     10.68761         0.405303      2.224779      0.133155
O      13.62718     11.62005     10.61230         0.058291     -0.205668      1.807538
O       5.95119      3.72691      2.53115        -0.004614      1.943431     -0.228105
O       5.69657      3.99128     14.59899         0.240626     -0.994438      0.847063
O       5.71257     15.43334      2.44713         0.998026      2.181916     -0.022528
O       5.95647     15.60165     14.68228        -0.244458      0.729900      0.924193
O       5.76698      3.80545      6.49318        -0.072584     -0.399272     -0.378998
O       5.91330     15.50768      6.48844         0.546324      1.898147      0.616912
O       5.65613      3.98979     10.68540         0.417124     -2.540561      0.649404
O       5.57984     15.50640     10.89251         1.534480     -0.080397     -1.221768
O       6.01618      7.60044      2.16076         0.070596     -0.973272      0.524419
O       6.23841      7.87663     15.00088        -1.927868     -0.281076     -0.526117
O       5.99074      7.75828      6.77842        -0.439514      0.058616     -0.297588
O       5.97093      7.77446     10.52052        -0.364732      1.091694      0.178391
O       5.71852     11.57822      2.26590         0.808812      0.365542      0.341152
O       6.02094     11.62337     14.79071        -0.783135     -0.289569      0.419786
O       5.54366     11.61777      6.45845         0.803420      0.532333      0.248839
O       5.96807     11.63678     10.89528        -2.084305      0.192252     -1.573855
O       9.65414      3.77810      1.99224         1.184852      2.457842      0.348075
O       9.92169      3.57578     15.50093        -1.144848      2.128278     -2.136842
O       9.41749     15.32681      2.13986         0.733409      2.669295      0.590317
O       9.60906     15.49438     14.82599         0.650172      0.515723      0.831282
O       9.94465      3.77214      6.48391         0.496437      2.270839      0.809962
O       9.73278      0.14462      6.67536        -1.382669     -0.981518     -0.771595
O       9.56645      3.84822     10.75106        -0.127569      1.263828      0.558015
O       9.78666      0.05504     11.07354        -0.296631     -1.245378     -0.726322
O       9.95263      7.53340      2.49722        -0.520558      1.142569     -0.494054
O       9.87761      7.63761     14.90276        -1.114103      0.059058     -0.971668
O       9.48601      7.76038      6.48894         0.986156     -0.956556     -0.295661
O       9.50288      7.79215     10.80706         1.171223     -1.337825     -0.714459
O       9.82807     11.69958      2.26449         0.572717     -1.808983      0.359161
O       9.75985     11.60661     14.86546         0.800772      3.178150     -0.208097
O       9.94825     11.77169      6.61652        -0.211055      0.320275     -0.393997
O       9.96454     11.86848     10.43478        -0.070820     -1.054673      0.720261
