  # total energy = -7842.28569052 
CRSYTAL
PRIMVEC
    15.6080000000000005    0.0000000000000000    0.0000000000000000
     0.0000000000000000   15.6080000000000005    0.0000000000000000
     0.0000000000000000    0.0000000000000000   16.6239999999999988
PRESSURE
3.70977 4.31134 2.11563 -0.359966 0.067593 0.051111
PRIMCOORD
320 1
Pb       3.52555      3.99095      4.06596         0.874152     -2.244997      1.376922
Pb       3.76849      3.98196      0.24245        -0.009497      0.012738     -0.648991
Pb       3.68458      0.02326      4.23445         1.246284     -0.100279     -0.983251
Pb       3.90677     15.44935     16.26993        -0.136516      1.061597      0.601037
Pb      15.44140      3.95815      4.12492         0.938614      0.102690      0.891306
Pb       0.10704      3.73105     16.42047        -0.520117     -0.051990     -0.204680
Pb       0.17836     15.41194      4.31397        -1.310160      0.656277     -0.320882
Pb       0.10559     15.38088      0.05880        -0.671484      1.006744     -0.588332
Pb       3.93756      3.92614      8.34477        -0.199146      0.176835      1.240129
Pb       3.88997     15.51938      7.91689         0.580820      1.196409      1.941153
Pb      15.57965      4.01689      8.36861        -0.199809     -0.658913      0.352395
Pb       0.21395      0.31025      8.60984        -1.007162     -0.152949     -1.389204
Pb       4.19896      3.79442     12.47664        -1.171848      1.308014      0.146903
Pb       3.90598     15.41919     12.37273        -0.675057     -0.299538      1.593288
Pb      15.46903      3.76247     12.40767        -0.236938     -0.072063     -0.049442
Pb       0.12035      0.28983     12.57324        -0.519320     -1.690603      1.112931
Pb       3.74991      7.63636      4.31199         0.047225      0.433012     -0.120095
Pb       3.79049      7.93340      0.08308        -0.733217     -0.017030      0.335092
Pb      15.35846      8.05726      4.28909         1.529711     -1.790245      0.183485
Pb      15.41846      7.85469      0.28480         0.315411      0.975916     -1.109932
Pb       3.66342      7.87989      8.14549        -0.331125     -1.113709      0.544756
Pb      15.52730      7.55400      8.40712         1.545865      0.385091     -0.469518
Pb       4.07338      7.97078     12.33155        -0.653226     -1.161865     -0.455287
Pb       0.04096      7.70727     12.68623         0.528834      0.803808      0.345782
Pb       4.16048     11.44947      3.82349        -0.493415      0.350837      1.021746
Pb       4.15319     11.55721     16.36889        -0.526907      0.351663      0.759851
Pb      15.34101     11.73428      4.36511         1.201711      0.448310     -0.074980
Pb      15.60156     11.66053      0.19308         0.703599     -0.577082     -0.475954
Pb       4.15994     11.67465      8.54519        -0.822758     -0.188735     -1.246005
Pb       0.04851     11.42160      8.70786        -0.459202      0.097035     -1.694786
Pb       3.51226     11.70503     12.24602         1.616029     -0.210850      0.606139
Pb       0.02157     11.63867     12.42622        -0.407523      0.670277      0.734359
Pb       7.72448      3.95262      4.44076        -0.680572      0.561230     -0.622534
Pb       7.88301      3.72044      0.23442        -0.247041      0.272481     -1.118780
Pb       7.32211      0.17746      4.04606         1.305139     -1.024288      0.466937
Pb       7.89821      0.25511      0.24755        -0.426430     -0.403139     -1.074940
Pb       8.12239      3.87661      8.75071        -1.004192     -0.068715     -0.948181
Pb       7.83895      0.18737      8.36253         0.767715      0.279757     -0.924507
Pb       7.82495      3.57254     12.69984        -0.412901      0.988594      0.092027
Pb       7.60843     15.34500     12.35206         0.989859      1.189512      1.252502
Pb       7.94746      7.73868      3.98698        -0.141590      0.217699      0.956531
Pb       7.98383      7.77666     16.37212        -0.004014      1.021376      0.411690
Pb       7.88079      7.56429      8.13858        -0.544517      0.805635      0.825924
Pb       7.70842      7.61899     12.44731        -0.234985      0.626567     -0.008352
Pb       7.70995     11.78874      4.33151         0.415257     -0.197766     -0.489931
Pb       7.56900     11.37104      0.00151         0.908995      0.338454     -0.422792
Pb       7.59646     11.91585      8.66328         2.525283     -1.447323     -0.659474
Pb       7.52437     11.92598     12.45459         0.850605     -2.260609      1.656732
Pb      11.91396      4.11417      4.02962        -0.347236     -0.734448      1.434284
Pb      11.67283      3.80524      0.18713         1.127454     -0.183803     -0.520154
Pb      11.47163      0.24282      3.80816         0.922033     -2.050979      0.639263
Pb      11.51886     15.48277     16.52076         0.448971      0.827747      0.789735
Pb      11.56433      3.72323      8.17320         0.327170     -0.291443      1.745787
Pb      11.41103     15.58264      8.42030         0.927754      0.287720     -0.864325
Pb      11.78556      4.16305     12.56560         0.052773     -1.387380      0.338540
Pb      11.81234      0.24601     12.42884        -0.374685     -0.873925      0.533970
Pb      11.91164      8.01066      3.89924        -1.202834     -1.562040      0.753832
Pb      11.33858      7.77070     16.53753         2.384510      0.870374     -0.199119
Pb      11.27919      7.84161      8.00624         0.532025      0.708065      0.992745
Pb      11.84002      7.89274     12.21544        -1.853276      0.367877      2.155892
Pb      11.64680     11.94097      4.34457        -0.901845      0.881883     -0.121105
Pb      11.54383     11.80336      0.33883         0.145221     -0.136260     -1.104502
Pb      12.07200     11.35734      8.28622        -1.670770      1.624177      1.000030
Pb      11.68026     11.82103     12.46080        -0.030606     -0.774904      0.040448
Ti       1.94420      1.95953      2.04531        -0.496365     -0.949455     -1.785250
Ti       1.90925      1.96966     14.53037         0.906601     -0.975128      1.670134
Ti       2.03656     13.73345      2.11613         0.957392     -1.616209      1.937096
Ti       2.01976     13.43699     14.71851        -0.454853      1.408257     -0.659679
Ti      13.76793      1.97970      2.20921         0.930838     -3.550109     -2.126263
Ti      13.54715      1.79061     14.78564         1.107187      2.375075     -0.662467
Ti      13.68833     13.68924      2.22580        -1.058324      0.887265     -0.877384
Ti      13.70940     13.57270     14.77183         0.928292      0.126764     -1.090476
Ti       1.86184      1.85235      6.27953        -1.167723      0.486965      2.828679
Ti       2.12877     13.51079      6.21246        -1.359942     -2.093708      3.301449
Ti      13.48718      1.81047      6.39316         0.517881      0.319916      1.410726
Ti      13.83241     13.65109      6.42329        -0.189671      0.350300      1.434343
Ti       2.15348      1.81034     10.54742         0.516919      1.955492      0.819384
Ti       1.77316     13.52390     10.16609         1.249609      0.899314      4.083277
Ti      13.60120      1.75905     10.39051         0.200498      2.066577      0.843607
Ti      13.61202     13.65245     10.47344         0.768142     -0.747149     -1.613197
Ti       1.85433      5.86828      2.20804        -0.386741      1.324627      1.600025
Ti       2.01694      5.82990     14.53555         0.580046      0.999637      0.380759
Ti      13.73551      5.76659      1.93965        -1.240373      0.810318      1.512820
Ti      13.69454      5.72345     14.63004        -0.142282      0.577182      3.081403
Ti       1.84624      5.46689      6.36899        -0.360840      6.003970      0.259037
Ti      13.51144      5.91434      6.51967         1.794667     -0.938466      2.602661
Ti       1.89965      5.92110     10.76636         2.912052     -1.402505     -1.808000
Ti      13.59021      5.87929     10.42906         0.366199     -2.515258      0.246265
Ti       1.99608      9.68422      2.49434         0.994735      0.983697     -2.458588
Ti       1.95104      9.65728     14.62884        -1.379716     -0.453178      0.098886
Ti      13.63689      9.90838      2.29533         1.968349     -0.487508     -2.600618
Ti      13.68439      9.84274     14.67640        -0.818511     -2.054962      0.706797
Ti       2.14881      9.74829      6.21340         0.270055     -0.598756      1.317170
Ti      13.68454      9.71651      6.33476        -0.265783      0.371105     -0.003400
Ti       1.88063      9.68750     10.38313         2.036615     -2.598159     -0.967960
Ti      13.73644      9.71163     10.67352        -0.783988      0.570715     -1.369458
Ti       5.78518      2.00854      2.02343        -1.226721     -1.340258      1.036147
Ti       5.65248      2.08865     14.64196         1.579068     -0.754133      0.474855
Ti       5.94304     13.62715      2.02335        -1.556402     -1.966683      0.700441
Ti       6.13046     13.78248     14.78403        -1.433913     -0.539048     -1.399631
Ti       5.68218      2.00585      6.22545         1.686319     -0.601136     -0.720707
Ti       5.97119     13.62557      6.25843        -1.342936     -1.248058      0.802127
Ti       5.87897      1.94937     10.63204        -0.393311     -0.422755      0.225822
Ti       5.81890     13.65504     10.51436        -1.563353     -0.553696      1.815311
Ti       5.92430      5.70515      2.21558        -0.227568      0.221580     -1.154915
Ti       5.95897      5.89611     14.85211        -1.434430     -0.416163     -2.396036
Ti       5.68893      5.76625      6.42410         2.088932      1.217345      0.165000
Ti       5.88815      5.74437     10.32639        -3.042623      2.173472     -0.228432
Ti       6.02582      9.48266      2.18378        -2.181269      1.911477      1.292851
Ti       5.76934      9.68843     14.41466         2.730647      0.918140     -1.076804
Ti       5.97650      9.75090      6.46763        -0.269355      0.428077     -2.147075
Ti       5.96365      9.70484     10.32977         0.938473     -0.915235      3.724001
Ti       9.75498      2.07667      2.14581        -0.523773     -2.425597      0.267868
Ti       9.71311      1.88927     14.69096        -0.290871     -1.177083      1.564682
Ti       9.50420     13.56930      1.84296         0.829201     -0.280700      1.690797
Ti       9.80794     13.56427     14.56116        -0.985021      0.032084      2.002092
Ti       9.69133      2.08378      6.01447         0.611772     -5.109273      2.270571
Ti       9.78664     13.70069      6.41415         0.246983      0.309191     -0.947550
Ti       9.82253      2.01004     10.77976        -0.856229     -1.547942     -1.609431
Ti       9.91592     13.67641     10.42931        -0.443702      0.686595     -0.029018
Ti       9.76356      5.78371      2.03630         0.550157      0.212804     -0.518058
Ti       9.75418      5.67593     14.68490         1.101332      0.739636     -0.383626
Ti       9.75921      5.70649      6.32618        -1.311895      1.353858     -0.154900
Ti       9.67381      5.85014     10.59608         0.123317      0.650801     -0.196955
Ti       9.79039      9.89470      2.08839        -1.497702      0.310819      1.061838
Ti       9.80935      9.93532     14.45905        -0.812483     -2.223285     -0.593998
Ti       9.71758     10.03935      6.21617        -1.004801     -1.199111      1.034081
Ti       9.78242      9.80618     10.43434        -1.357240      0.172647     -1.121773
O       1.94982      2.03473      0.21257         0.090289     -0.287143      0.279304
O       1.90404      2.05122     12.77458        -0.007092     -0.525718     -2.517388
O       1.81926     13.48170      0.40516         1.074994      0.810829      0.207275
O       2.01041     13.61658     12.94937        -0.213676     -1.356201     -0.644217
O      13.76602      1.60458      0.41317        -0.196394      1.113141      0.616097
O      13.70942      1.95748     12.90915         0.085434     -0.531470     -0.665534
O      13.91592     13.62817      0.36624        -0.792774      0.355041      0.113183
O      13.65625     13.53419     12.91760        -0.140805      0.052231      0.778318
O       1.77313      1.96783      4.60936         0.137237      0.053880     -3.011426
O       2.06699     13.92980      4.58950         0.401150     -0.511349     -3.697632
O      13.46870      1.89884      4.63236         0.710213      0.388314     -1.365627
O      13.47325     13.40866      4.68395         0.194422      0.866069     -1.748188
O       2.18329      1.99543      8.80399        -0.584951     -1.014910     -0.601653
O       1.75267     13.23432      8.51791         0.644116      1.099216     -2.163649
O      13.74427      1.79009      8.66286        -0.260265     -0.039228     -0.022442
O      13.46678     13.41683      8.67313         1.691425      0.706828     -0.147319
O       2.22165      5.85964      0.48723        -0.120125     -0.041689     -1.173845
O       1.95525      6.01677     12.68915        -0.496158     -0.976216      0.287693
O      13.20151      5.73274      0.34094         1.295022     -0.019729     -1.773764
O      13.69952      5.46600     12.91751         0.905235      1.199947     -2.259948
O       2.09607      5.78767      4.25541        -1.048192     -0.770708      1.775825
O      13.84423      5.50235      4.93670        -0.434536     -0.620175     -5.591130
O       1.88095      6.05283      8.48160         0.062735     -0.605032     -0.723981
O      13.47107      5.84190      8.66150         0.338951      0.345882      0.015948
O       1.80407      9.62737      0.18894         0.536280     -0.678636     -0.269146
O       1.93476      9.46061     12.71563        -0.515450      2.085274      1.023543
O      14.00262      9.91803      0.33041        -0.893863     -1.207898      1.802359
O      13.66859      9.45559     12.81751         0.108537      1.273304     -0.926019
O       2.19417      9.51882      4.35557        -0.090451      0.153517      1.347353
O      13.59719      9.59475      4.37417        -0.187417      0.809812     -0.047905
O       1.82291      9.69850      8.26423        -0.152813      0.011497      3.037085
O      13.88174      9.89183      8.79665        -0.856223     -1.598428     -1.052491
O       5.85936      1.84234      0.25518        -0.182659      0.603947     -0.968386
O       5.82383      1.99000     12.84024        -0.110170      0.106418     -0.284684
O       6.00854     13.71348      0.25676         0.076677     -0.072288     -1.942379
O       6.02322     13.74689     12.76293        -2.021691     -0.976251      0.678959
O       5.73270      1.78610      4.40274         0.284766      0.518445      0.638847
O       6.16076     13.56780      4.53458        -0.539387      0.586982     -1.949178
O       5.73899      1.83577      8.92404         0.529648      0.005979     -2.810978
O       6.02136     13.48330      8.78015        -1.339883      0.985299     -1.560001
O       5.73903      5.54598      0.21009         0.305377      0.416554      2.596911
O       6.01754      5.96501     12.88077        -0.463470      0.022159      0.830258
O       6.28380      5.98847      4.65743        -1.044641     -0.934304     -0.079182
O       5.74472      5.58069      8.52620        -0.242116      0.312006     -0.430761
O       5.90463      9.83812      0.48451        -0.892316     -1.136300     -2.865358
O       5.86764      9.58850     12.59069         0.179108     -0.081390      1.432709
O       5.83621      9.58595      4.44981         0.696085     -0.081125      0.732637
O       6.00202     10.06219      8.63438        -0.593694     -0.278106     -1.979306
O       9.70275      1.70693      0.38256         0.667932     -0.451171     -0.345738
O       9.74939      2.05388     12.93800         0.314580      0.406396     -1.325066
O       9.41041     13.10025      0.10749         1.209757      2.154851      0.148605
O      10.08829     13.41415     12.87431        -0.088116      0.467461     -2.711822
O       9.78701      2.05921      4.25271         0.160053     -0.085263     -1.639094
O       9.68955     13.34199      4.51080         0.134539      0.923165      1.333488
O       9.75404      2.03656      8.87118        -0.884675     -0.880652      0.634644
O       9.67812     14.08527      8.63485        -1.169770     -1.334292      1.186177
O      10.04745      5.85494      0.12208        -0.943221     -0.693337      2.428873
O       9.41418      5.55931     12.89450         0.271131      0.170617     -0.486734
O       9.67539      5.50073      4.57478         0.186701      0.375525     -0.089898
O       9.80173      5.67773      8.71131         0.213364      0.181908      0.628668
O       9.82064      9.78092      0.31145         0.299595     -0.236371      0.419694
O       9.82408      9.90769     12.66029         0.545535      0.105903     -1.105848
O       9.50707      9.76844      4.38098         1.317600      0.238572     -0.103282
O       9.88296      9.87553      8.53591        -0.667266     -0.995789      2.143032
O       3.87231      2.06631      2.17009         0.698811     -0.451687      0.672577
O       3.87294      1.91447     14.71903         0.095874      0.287657      0.715736
O       4.06569     13.51280      2.41922        -3.455758      0.402254     -0.162375
O       4.05776     13.61541     15.00212        -0.826125     -0.870737     -0.261204
O       0.07917      1.65975      2.22970        -0.490651      0.601943      1.117868
O       0.15079      1.86649     14.79281        -1.429479      0.835817      0.499393
O      15.51268     13.81911      2.66182         2.594212     -1.466939     -0.196066
O       0.09827     13.50351     15.05781        -0.476458      0.287198     -0.601297
O       3.89684      1.82787      6.39130        -0.858334     -0.346909      0.810435
O       4.01533     13.80449      6.60437        -1.602439     -1.176765     -0.588291
O       0.00826      2.12476      6.88764         0.408678     -0.707653     -0.680423
O       0.17591     13.46253      6.26418        -1.783600     -0.021895      0.119121
O       4.03328      2.02704     10.90138        -2.987522     -0.923965      0.483068
O       3.82303     13.31151     10.47082        -0.358555      0.092119      0.457340
O      15.60795      1.52727     10.70788         0.695103      1.806843     -0.690275
O      15.52686     13.59740     10.71169         1.098857     -0.041986     -0.241211
O       4.07771      5.48576      2.71237         1.234097      2.508320     -2.716110
O       3.83738      6.19607     14.95602         0.465334     -1.441217     -0.490547
O      15.57296      5.82044      2.48419         1.001826     -0.246417     -0.671504
O      15.59216      5.81102     15.03234         0.200610     -0.056304     -0.375729
O       3.83487      5.72439      6.46440         0.627114      0.336949     -0.197321
O      15.59504      5.54311      6.54392         0.521120      0.406075      0.837331
O       3.81670      6.11446     10.52981         0.153594     -0.350660      0.622184
O       0.08764      5.83202     10.37333        -2.528625      0.306268      0.947718
O       3.92295      9.47535      2.26739         0.512130      0.472179      0.557476
O       3.96404      9.92516     14.47333        -0.819895     -1.169822      1.347026
O       0.15239      9.53949      2.63237        -3.258162      0.396315     -0.449178
O      15.54796      9.84763     14.68095         1.212428     -0.811596     -0.171238
O       4.05493      9.68954      6.66117        -1.461728     -0.667997     -0.278652
O      15.43650      9.63513      6.34958         1.435934      0.791291     -0.358312
O       3.80867      9.83022     10.65334         0.523148     -0.156133     -0.733303
O       0.03581      9.68605     10.58631        -1.916875      0.024961      0.780210
O       7.81081      2.12221      2.13640        -0.415300     -2.027752      0.730132
O       7.85617      2.04581     15.03296        -0.672287      0.250272     -0.334473
O       7.71925     13.29881      2.33014         0.915010      0.349420      0.312815
O       7.88502     13.52819     14.47930         0.377955      0.379455      0.796482
O       7.94297      2.00133      6.37294        -2.148431      0.079750      0.231700
O       7.63110     13.21654      6.70862         2.939669      0.899132      0.009117
O       7.68245      1.82034     11.07487         1.207963      0.479834     -1.202400
O       7.67286     13.45233     10.87785         2.292303      2.137709     -1.669949
O       7.94990      5.59294      2.59344        -0.899597      0.493771     -1.180847
O       7.80601      5.79999     15.07801         0.521507     -0.800171      0.136834
O       7.79035      5.59898      6.97070         1.581250     -0.522181     -1.499343
O       7.63396      5.72705     10.52241         3.559473     -0.044365      0.385953
O       7.82574      9.83417      2.18118         2.040859     -0.743836      0.758855
O       7.91865      9.80708     14.86122        -0.669523     -0.897537      0.351238
O       7.87941     10.01877      6.68485        -0.990218     -0.379667     -0.445822
O       7.83900      9.83221     10.72419         0.344862      0.091798     -0.750397
O      11.83824      1.94909      2.29190        -1.350560      0.244103      0.424309
O      11.74384      1.72939     14.98304        -1.076916     -0.765315     -0.021284
O      11.58641     13.62832      2.25206         0.501504     -0.277876     -0.239977
O      11.74623     13.81243     14.99764         1.079759     -1.017444      0.078830
O      11.67580      1.54274      6.67772        -0.024602      1.677323     -0.604042
O      11.55522     13.73047      6.73569         0.698577      0.185068     -0.629619
O      11.64757      1.92322     10.67544         1.295182     -0.022859      0.714153
O      11.77907     13.79848     10.49909        -1.815301     -0.345597      1.448836
O      11.69768      5.55841      2.35972         0.742719      0.161281      0.546178
O      11.63160      5.53604     14.51398        -0.098927      0.541939      0.717058
O      11.76919      5.99329      6.46291        -4.543916     -0.513247      0.063448
O      11.57859      5.86517     11.05599         0.365587     -0.054790     -1.330081
O      11.81289      9.62250      2.32101        -0.751913      0.716940     -0.173970
O      11.62082      9.87424     14.80496         2.651792     -0.766054      0.454019
O      11.57232      9.74444      6.67278         1.670109     -1.259249     -1.401713
O      11.69138      9.50889     10.50049         1.197002      0.129967      0.862598
O       1.96381      3.78694      2.20400        -0.474105      1.805662      1.121237
O       1.74213      3.94226     14.75067         1.425351      0.358775      0.313115
O       2.08618      0.02218      2.52626         0.061407     -1.212310     -0.488664
O       2.11316     15.56516     14.66786        -0.286642     -0.077759      1.273891
O      14.02743      3.79982      2.36727        -1.540462      0.909930      0.045425
O      13.56412      3.74394     14.94539         0.916871      0.586978      0.963769
O      13.68413     15.41182      2.64105        -1.180060      2.498789      0.279994
O      14.10484      0.13155     14.95617        -0.992381     -4.340380     -0.179153
O       2.01817      3.81864      6.67918         0.430538     -2.525585      0.197175
O       1.74342      0.01661      6.45671         1.157705     -0.646553      1.285936
O      13.29870      3.78613      6.86432         1.368894     -0.537285     -1.002760
O      13.83132     15.45615      6.71461         0.280967      0.823066     -0.302362
O       2.10264      3.96328     10.62839        -0.665766     -0.572605      0.523412
O       2.15759     15.34583     10.73613        -0.609923      1.548393     -0.925585
O      13.59785      3.89385     10.84357         0.622961     -0.056148     -0.903777
O      13.53704     15.57099     10.76262         0.357031     -0.212878      0.219834
O       2.04909      7.80040      2.42558        -0.094481     -3.462009     -0.398953
O       1.94228      7.74357     14.66982        -0.754416      1.072899      0.996052
O      13.76277      7.65830      2.32665        -0.805722      0.184307      0.382750
O      13.64595      7.61973     15.17202        -0.293416      0.614109     -0.887793
O       2.00484      7.83676      6.42640         0.139495     -0.619677     -0.402318
O      13.66074      7.79257      6.52161        -0.246723      0.291239      0.374943
O       1.83629      7.93841     10.90876        -0.167192     -1.453245     -1.479645
O      13.68065      7.64118     10.93771         0.695674      0.797828     -0.943142
O       1.79015     11.52180      2.66667         0.668303      2.391108     -0.664522
O       2.01914     11.59698     15.01487         0.195690      0.143304     -0.789668
O      13.72314     11.73761      2.33792        -0.095151     -1.478619      0.842961
O      13.79823     11.61107     14.94929        -1.001420      2.395485     -0.355408
O       2.06374     11.56830      6.37510         0.059082      1.723621     -0.660268
O      13.51847     11.66742      6.37487         0.221737     -1.695007      0.909482
O       1.70785     11.51933     10.68352         0.125850      2.392088      0.216595
O      13.64494     11.63638     10.60278         0.080375     -0.536907      1.855160
O       5.95741      3.71095      2.53408        -0.118360      2.460596     -0.207746
O       5.67734      3.97901     14.60092         0.285533     -0.582435      0.969517
O       5.70286     15.41433      2.44332         1.027597      2.510709      0.044657
O       5.93705      0.00659     14.66648        -0.196448      0.123641      1.081924
O       5.75438      3.82079      6.49121         0.008141     -0.551592     -0.347154
O       5.91624     15.50047      6.48613         0.442331      2.097114      0.710973
O       5.66919      3.96016     10.66750         0.399801     -1.683418      0.688471
O       5.54775     15.51363     10.88885         1.825459     -0.001786     -1.346459
O       6.06551      7.61481      2.13959        -0.098113     -1.710651      0.549147
O       6.25584      7.88483     14.96794        -2.035362     -0.265103     -0.450130
O       6.01073      7.76074      6.78390        -0.560841     -0.153407     -0.339298
O       5.98567      7.76070     10.52923        -0.340590      1.090738      0.160731
O       5.69724     11.57587      2.27259         1.073777      0.472100      0.182384
O       5.99534     11.63133     14.78972        -0.574288     -0.303313      0.283980
O       5.55441     11.63022      6.45043         0.791244      0.414555      0.361155
O       5.95534     11.64165     10.89188        -1.724133      0.053339     -1.285780
O       9.65266      3.77836      2.02681         1.230263      2.649737      0.140787
O       9.94905      3.56217     15.50241        -1.504939      2.216310     -2.293009
O       9.45830     15.35731      2.13639         0.600941      1.692204      0.489645
O       9.63692     15.49397     14.84090         0.483388      0.383779      0.689105
O       9.95200      3.75088      6.47807         0.544444      2.917869      0.891005
O       9.71622      0.11768      6.69372        -1.408123     -0.881191     -0.723077
O       9.55989      3.84891     10.75595        -0.038511      1.016858      0.636602
O       9.76365      0.03138     11.04767         0.028557     -0.595012     -0.577073
O       9.96697      7.51894      2.49609        -0.637423      1.505251     -0.471811
O       9.86784      7.64623     14.88585        -0.970552     -0.206878     -0.808404
O       9.48030      7.74777      6.48141         1.046620     -1.089787     -0.266822
O       9.50019      7.77181     10.78343         1.069368     -1.103206     -0.509160
O       9.83623     11.72434      2.25107         0.665354     -2.492360      0.443697
O       9.78407     11.61526     14.85128         0.620383      3.072931     -0.103482
O       9.95350     11.76407      6.60419        -0.337361      0.265396     -0.348622
O       9.97490     11.87113     10.45017        -0.153790     -1.253381      0.668599
