  # total energy = -7881.14889974 
CRSYTAL
PRIMVEC
    15.464    0.0000000000000000    0.0000000000000000
     0.0000000000000000   15.464    0.0000000000000000
     0.0000000000000000    0.0000000000000000   17.350608
PRESSURE
0.317951 -0.020627 -0.386215 0.136278 -0.158974 0.044535
PRIMCOORD
320 1
Pb       3.86753      3.53639      4.25580        -0.503071      1.480805     -0.045573
Pb       3.81093      3.71252     17.22550        -0.486509      0.949735      0.229191
Pb       4.01308     15.37057      4.28378        -0.410616      0.076342      0.463294
Pb       3.83535      0.07049      0.03035        -0.608976     -0.248953     -0.112405
Pb      15.18687      3.83006      4.20543         1.595251      0.117413      1.002714
Pb      15.38348      3.85622     17.32168         0.225038      0.093918     -0.046750
Pb      15.29803     15.43253      4.20829         0.653356      0.396287      0.459841
Pb      15.33211      0.03833     17.32380         0.600317     -0.500861      0.379542
Pb       3.89387      3.78022      8.60256         0.091955      0.398736      0.494243
Pb       3.94551      0.03074      8.53016        -0.165200     -0.097519      1.330369
Pb       0.02617      4.02230      8.58155        -0.355172     -0.519053     -0.011953
Pb       0.09198      0.09822      8.70309        -0.570634      0.004554      0.114915
Pb       3.86713      3.96111     13.02658         0.264149     -0.406358      0.541156
Pb       3.78945      0.17963     12.91544         0.085141     -0.982423      0.071330
Pb      15.28390      3.84153     12.99618         0.180772      0.097452      0.202234
Pb      15.40057     15.32894     12.94854         0.165915      0.409223      1.048730
Pb       4.05876      7.63184      4.24424        -0.974336     -0.215210      0.426865
Pb       3.99835      7.84325     17.28471         0.037220     -0.729285      0.645183
Pb       0.09648      7.76329      4.32602         0.056594      0.012769     -0.097988
Pb       0.06232      7.77675     17.34117        -0.855536      0.202461      0.978422
Pb       3.65119      7.52282      8.63367         0.848738      0.676496      0.188288
Pb      15.26935      7.80680      8.69539        -0.006788      0.059881     -0.850611
Pb       3.88030      7.80560     12.91639        -0.296805     -0.466861      0.551984
Pb      15.38129      7.52557     12.93304         0.317662      0.234215      0.266450
Pb       4.06007     11.47280      4.36334        -0.583729      0.160018      0.240073
Pb       3.97014     11.57339     17.29679        -0.814146      0.254328     -0.186486
Pb      15.46310     11.66550      4.30063         0.022127     -0.627461      0.100707
Pb      15.38449     11.61381      0.03416         0.276469     -0.509784      0.034704
Pb       3.99780     11.47601      8.85593        -0.124277      0.218016     -0.453344
Pb       0.11057     11.72005      8.60243        -0.384543      0.118394      0.082177
Pb       3.85893     11.61253     12.90952        -0.474901      0.957941      0.279870
Pb      15.44909     11.23170     13.07449        -0.325170      1.270412      0.818576
Pb       7.79298      3.76208      4.28854        -0.120386      0.515771     -0.149348
Pb       7.66447      3.70994     17.25830        -0.106676      1.078503      0.209355
Pb       7.72091     15.43942      4.27480        -0.298413     -0.393998      0.779289
Pb       7.69167      0.04377     17.28443         0.340836     -0.174978      0.520396
Pb       7.70420      3.80905      8.48482         0.007925     -0.251229      1.130293
Pb       7.82268     15.26501      8.61586        -0.092744      1.053458      0.687571
Pb       7.75988      4.01168     13.01495        -0.374477     -0.968017     -0.117756
Pb       7.59164      0.08166     12.92652         0.217063     -0.210595     -0.161373
Pb       7.81962      7.67949      4.26667        -0.402663      0.167054     -0.356473
Pb       7.76798      7.86244     17.31713        -0.319694     -0.222324      0.082645
Pb       7.62256      7.67571      8.62543        -0.087169     -0.064576     -0.509290
Pb       7.89349      7.80589     12.97689        -0.570566     -0.102712      0.141174
Pb       7.75602     11.58774      4.41878         0.251476     -0.116059     -0.080540
Pb       7.71551     11.71648     17.27017         0.413035     -0.560613      0.096807
Pb       7.95415     11.49623      8.61745        -0.327419      0.182910      0.338244
Pb       7.61767     11.60501     12.82914         0.697092      0.260738      0.412481
Pb      11.51220      3.83566      4.31574         0.219551      0.271907      0.374454
Pb      11.49453      3.72462     17.19122         0.314532      0.649317      0.567448
Pb      11.54361      0.04369      4.35777         0.022346      0.017517      0.327736
Pb      11.57939     15.30058     17.22830        -0.122185      0.206116      0.209012
Pb      11.46740      3.85062      8.65572         0.395977     -0.139782      0.101425
Pb      11.64839      0.01477      8.56902         0.052951     -0.084756      1.014323
Pb      11.46366      3.89127     12.87040        -0.000898     -0.377485     -0.122054
Pb      11.40695      0.07030     12.95217         0.030416      0.209027     -0.352464
Pb      11.45468      7.69513      4.22972         0.793962      0.022427      0.494564
Pb      11.42963      7.61307      0.04398         0.749302      0.595430      0.096045
Pb      11.42319      7.70926      8.56135         0.736795      0.243616      0.079016
Pb      11.60648      7.51473     12.92410        -0.232126      0.540466      0.341187
Pb      11.57715     11.74820      4.32597         0.369721     -0.484734      0.444320
Pb      11.61850     11.64701      0.00445         0.181721     -0.801337     -0.319430
Pb      11.77843     11.74781      8.72745        -0.196803     -0.361344     -0.359446
Pb      11.51031     11.49806     12.93301         0.069523      0.050690      0.251257
Ti       1.85853      1.85847      2.29135        -0.487007      1.114084     -1.123817
Ti       1.80050      1.84624     15.32051         0.205753      0.863793     -0.547797
Ti       2.00048     13.45224      2.43215        -0.258131      0.327276     -2.002327
Ti       1.90687     13.57087     15.44789        -0.378456     -1.374729     -1.897581
Ti      13.38474      1.90377      2.26694         0.812903      0.146794      1.887490
Ti      13.42545      1.83023     15.34877         0.298516      1.244104     -1.046995
Ti      13.56084     13.55164      2.32594        -0.416662     -0.641125     -0.557438
Ti      13.55968     13.42260     15.26237         0.268539     -0.691786     -0.578608
Ti       1.88265      1.98078      6.60462        -0.587796     -0.358933     -0.086481
Ti       2.04892     13.60402      6.71682        -0.831374     -0.949070     -0.798802
Ti      13.44736      2.03014      6.69394         0.431766     -0.765566     -0.149056
Ti      13.62682     13.60785      6.70328        -0.371098     -0.126433      0.300846
Ti       1.84796      1.96650     11.13560         0.586726     -0.659517     -0.264156
Ti       1.73490     13.52642     11.08726         2.345191     -0.034201     -1.488120
Ti      13.51620      1.95814     11.11330        -1.568780     -0.426350     -1.987446
Ti      13.48566     13.55440     11.10397        -0.372038     -0.626514     -1.372358
Ti       1.89739      5.75157      2.35526         0.696420     -0.822261      1.048057
Ti       1.88472      5.81042     15.41704         0.201320     -0.958483     -0.517591
Ti      13.45836      5.78139      2.32001         1.097763      0.679171      0.221195
Ti      13.46070      5.81638     15.46273        -0.148450     -0.603441      0.540857
Ti       1.89222      5.79643      6.58069         0.232010      0.600244     -0.298630
Ti      13.47295      5.85598      6.65811        -0.472057     -0.137176      0.194133
Ti       2.03676      5.68326     11.03620        -1.056668      1.374760     -0.367583
Ti      13.49533      5.80949     10.90061        -1.142628     -0.591695     -1.374629
Ti       2.00796      9.63629      2.33710        -0.615233     -0.450385      0.555777
Ti       1.94728      9.58935     15.43627        -1.063718      1.395134     -0.206597
Ti      13.47091      9.64539      2.46130         1.365827     -0.018246     -0.842343
Ti      13.44090      9.53326     15.42787         0.299844      0.754066      0.247132
Ti       1.93235      9.71044      6.78536        -0.070929     -0.788775     -1.923405
Ti      13.46290      9.70242      6.59775         0.049867      0.006504     -0.385788
Ti       1.87360      9.64303     11.08749         0.015450     -0.232873      0.564096
Ti      13.45021      9.62534     11.04318        -0.508706      0.258217     -1.463078
Ti       5.83815      1.89727      2.33110        -0.423422      0.146126      0.480683
Ti       5.70956      1.88052     15.34761         0.350017      1.339464     -1.527345
Ti       5.81180     13.50098      2.29882         0.993867     -0.291039      2.358519
Ti       5.73761     13.64207     15.38030         0.034666     -0.762322     -1.301106
Ti       5.76787      1.92293      6.67762         1.555886     -1.117627     -0.768806
Ti       5.84243     13.45207      6.83315         0.487917      0.197594     -1.596711
Ti       5.75904      1.99413     11.03665         0.843462      0.175326     -0.811113
Ti       5.80610     13.57502     10.99027        -0.834235      0.355185      0.569121
Ti       5.76216      5.68444      2.17359         0.049213      0.845474      0.143797
Ti       5.72508      5.81512     15.32625         0.513050     -0.331054      0.800269
Ti       5.74231      5.71533      6.54331        -0.141730      1.083462      0.477492
Ti       5.81373      5.76772     11.04855        -0.160664     -0.193885     -0.354857
Ti       5.89754      9.67420      2.35967         0.150842     -1.357601     -0.224006
Ti       5.79836      9.69881     15.24202         0.906359     -0.341102      0.659913
Ti       5.80682      9.58622      6.80801         0.042746      0.435160      0.973585
Ti       5.80569      9.59147     11.04837        -0.260120      0.393389     -1.419824
Ti       9.63373      1.89233      2.27863        -0.005066     -0.097957      0.732361
Ti       9.58280      1.88701     15.30460         0.832833      0.351726     -1.256602
Ti       9.72042     13.56220      2.37731        -0.905409     -0.012497     -0.358269
Ti       9.64370     13.46300     15.31296         0.227772      0.122287     -1.663774
Ti       9.62611      1.88924      6.67696        -0.473307     -0.503039      0.044290
Ti       9.73286     13.50683      6.69040        -0.053318     -0.544962      0.532629
Ti       9.54861      1.89641     10.93453         0.235600     -0.093050     -0.551862
Ti       9.68597     13.44641     10.95927        -0.548407      0.747134     -0.989329
Ti       9.65517      5.70363      2.22674        -0.684807      0.100820      1.637600
Ti       9.53739      5.80285     15.34959         0.666322     -0.506344      0.557659
Ti       9.61705      5.74961      6.59315         0.100788      0.176846      0.202248
Ti       9.51300      5.78396     10.83445         1.509582     -1.051840      1.167363
Ti       9.73824      9.74887      2.32790        -1.132232     -0.287345     -0.403813
Ti       9.65047      9.61834     15.30120         1.346133      0.553259     -0.160386
Ti       9.72828      9.63606      6.61916        -0.701565      0.443008     -0.056181
Ti       9.66897      9.58923     10.94991        -0.033692      0.966540      0.600131
O       1.77549      1.80470      0.43145         0.572933      0.217058      1.069411
O       1.93376      1.78587     13.50806        -0.426102      0.486893      0.751626
O       1.88997     13.42723      0.58686         0.870235      0.312857      1.307374
O       1.82001     13.55540     13.64063         0.217710      0.003222      0.687018
O      13.47163      1.92907      0.56526        -0.150572     -0.170328     -1.394823
O      13.47418      1.97444     13.59121        -0.076629     -0.236756     -0.379581
O      13.52481     13.58243      0.54226        -0.433400     -0.380576      0.345955
O      13.69542     13.30045     13.48653        -0.767833      0.518618      0.995575
O       1.91082      1.93323      4.85300        -0.039450     -0.065414      0.763889
O       2.00905     13.49417      4.91635         0.163778      0.354438      0.535538
O      13.41337      1.94749      4.89951         0.102678     -0.060803      0.368612
O      13.50075     13.63390      4.95518         0.329473      0.197446     -0.722055
O       1.88225      1.87158      9.40439         0.151865      0.466818     -0.766946
O       1.75528     13.57985      9.22863        -0.083123     -0.303632      1.594870
O      13.43044      1.87707      9.34516         0.146101      0.344567      0.319964
O      13.57556     13.57929      9.25208        -0.016365     -0.415108      1.294874
O       2.00327      5.59793      0.63946        -0.424416      0.179568     -1.405267
O       1.88478      5.80308     13.62206        -0.247680      0.232870      0.613187
O      13.58923      5.66778      0.58029        -0.280752      0.155919     -0.104228
O      13.36712      5.82252     13.69090         0.399771      0.191489     -0.279501
O       2.02283      5.85020      4.85651        -0.102001     -0.225391      0.039764
O      13.30594      5.62841      4.95188         0.523648      0.319257     -0.794739
O       1.96789      5.89978      9.26336        -0.225136     -1.090922      0.877284
O      13.39800      5.90149      9.07339         0.649769     -0.060189      1.265017
O       1.93204      9.69895      0.59339         0.421358     -0.096878     -0.189906
O       1.89547      9.57070     13.66827         0.089379     -0.378925     -0.350467
O      13.63734      9.78427      0.71152        -0.520035     -0.166630      0.016124
O      13.42610      9.45535     13.66900         0.139643      0.128302     -0.554325
O       1.94945      9.52069      5.01447         0.031883      0.752536      0.390760
O      13.35392      9.62966      4.82985         0.267801      0.304795     -0.074350
O       1.87588      9.79338      9.39109        -0.089050     -0.385289     -1.555378
O      13.34892      9.46375      9.23720         0.732233      0.340519      1.056949
O       5.86134      1.86732      0.59548        -0.431797      0.053587     -1.112673
O       5.89144      1.90753     13.58750        -0.377189     -0.368470     -0.102488
O       5.78653     13.65916      0.62767        -0.187124     -0.181268     -2.843309
O       5.76788     13.74754     13.63100         0.205789     -0.367406     -0.052987
O       5.74387      1.79237      4.87875         0.035792      0.489199     -0.145052
O       5.84114     13.51495      4.99929        -0.336852     -0.182280      0.629545
O       5.81148      2.09931      9.27698        -0.328378     -0.192124     -0.597174
O       5.86129     13.56506      9.27062         0.004471     -0.225941     -1.431652
O       5.84671      5.69916      0.34173        -0.375078      0.149903      1.373544
O       5.79444      5.75935     13.57971         0.113362      0.191568     -0.542971
O       5.64790      5.74695      4.78523         0.624149     -0.220970      1.248192
O       5.65483      5.72749      9.31228         0.404580      0.067616     -0.095111
O       5.94482      9.56414      0.60058        -0.082011      0.242584     -0.854132
O       5.87768      9.52684     13.52925        -0.399085      0.583395     -1.047960
O       5.88396      9.70746      5.10160        -0.303785     -0.059267     -1.852732
O       5.75912      9.62217      9.25071         0.056845      0.254475      0.552606
O       9.69131      1.86606      0.55422        -0.201102     -0.122046     -1.009933
O       9.64653      1.94639     13.49484        -0.224004     -0.409143      0.901287
O       9.73956     13.61096      0.58995         0.060014     -0.172627      0.181834
O       9.69169     13.43392     13.49573        -0.214254      0.220908      1.624304
O       9.66120      1.96314      4.91312        -0.121314     -0.241423     -0.301584
O       9.66522     13.49855      4.94635         0.142008      0.042591     -1.222434
O       9.44554      1.87126      9.16843         0.493293      0.410772     -0.329419
O       9.72913     13.38058      9.13998        -0.343008      0.062539      0.539523
O       9.73007      5.74921      0.51317        -0.486496      0.007130     -0.565424
O       9.66024      5.93123     13.58859        -0.265359     -0.470776     -0.116422
O       9.62134      5.59196      4.82750        -0.160909      0.498409     -0.104718
O       9.53167      5.73871      9.12732        -0.036371      0.189772     -1.332692
O       9.59683      9.74877      0.54340        -0.107436     -0.201000      0.269776
O       9.76900      9.62308     13.51695        -0.499351     -0.315651      0.152395
O       9.62908      9.72608      4.85109         0.338586     -0.286611     -0.137189
O       9.69486      9.79018      9.23858        -0.172170     -0.551791     -0.713948
O       3.81772      1.89955      2.62770         0.815689     -0.237753     -0.136079
O       3.77364      1.93874     15.66368         0.080469     -0.677965      0.269897
O       3.96600     13.48403      2.79333        -1.164211      0.254495     -0.174620
O       3.85579     13.58325     15.68606        -0.195208     -0.252414      0.877771
O      15.35232      1.87082      2.68788        -0.166490      0.262580     -0.069528
O      15.38817      1.76741     15.74701        -0.473084      0.533791     -0.383203
O      15.45996     13.49189      2.60625         0.429600      0.174285      0.864358
O      15.42824     13.49467     15.80855        -0.267291      0.203029     -0.134128
O       3.92649      1.80102      6.95232        -1.918486      0.924055      0.287713
O       3.95157     13.53604      7.22377        -1.167934      0.320462     -0.406182
O      15.38450      2.08219      7.15592         0.868165      0.018023     -0.581530
O       0.05319     13.61200      7.04475        -0.063771     -0.471548     -0.029255
O       3.91987      2.11072     11.38653        -1.387087     -0.765032      0.520347
O       3.84196     13.50055     11.30602        -0.425155      0.114573      0.463876
O      15.39987      1.88759     11.35298         0.058292      0.433976      0.730439
O      15.39329     13.46820     11.51727        -0.038412      0.112782     -0.615545
O       3.94040      5.78564      2.66065        -0.044557     -0.161642     -0.338240
O       3.86201      5.71290     15.65289        -0.579793      0.233422      0.286662
O       0.04781      5.80697      2.89305        -1.268118     -0.270774     -0.615350
O      15.41506      5.89996     15.87206         0.388508     -0.250776     -0.659152
O       3.83753      5.80669      7.10238         0.354427     -0.403181     -0.435858
O      15.40179      5.78849      6.90793         0.130817     -0.277404      0.444821
O       3.91211      5.77673     11.46819        -1.307664      0.027537     -0.080186
O      15.35480      5.63020     11.37020         0.500244      0.682717     -0.012205
O       3.91354      9.55602      2.69475        -0.254625      0.431284      0.039509
O       3.92778      9.71475     15.74614         0.063699     -0.578539      0.010460
O      15.42932      9.78976      2.76614         1.091694     -0.532000      0.485405
O      15.42761      9.63465     15.77643         0.799979     -0.720213     -0.037096
O       3.82360      9.64180      7.16146         0.034850      0.267834      0.167890
O      15.36992      9.67618      6.96547         0.635206     -0.180278      0.777677
O       3.83234      9.70141     11.49570        -0.093558     -0.258080     -0.297505
O      15.34400      9.64933     11.43459         0.986042     -1.022698     -0.278353
O       7.71616      1.92213      2.62452        -0.358795     -0.004466      0.463961
O       7.71874      1.94776     15.78752        -0.149572     -0.930327     -0.408722
O       7.73755     13.43033      2.68002        -0.024580      0.335545      0.217418
O       7.68425     13.68209     15.81206         0.823590     -0.568986     -0.327261
O       7.67542      1.90809      6.91681         0.508914      0.153034      0.309736
O       7.79992     13.66102      7.01286        -0.613693     -1.485670      0.109515
O       7.67702      2.01482     11.37881         0.447523     -0.277405      0.565683
O       7.73282     13.53647     11.42455        -0.155335     -0.158312     -0.072395
O       7.73827      5.72012      2.64047         0.608800      0.336676     -0.086471
O       7.68569      5.74782     15.72218         0.563053     -0.046119     -0.252625
O       7.65817      5.77732      7.01074        -0.020653     -0.031295     -0.289838
O       7.71572      5.68626     11.38520        -0.002960      0.712212      0.011369
O       7.76311      9.67824      2.78893        -0.195942      0.166787      0.120135
O       7.83849      9.69034     15.55284        -2.016577     -0.390060      0.695904
O       7.80174      9.81574      7.05546        -1.001878     -1.342434      0.384250
O       7.67883      9.67300     11.30594         0.463739      0.003383      0.463065
O      11.49920      1.90292      2.74802         0.951885     -0.227611     -0.301086
O      11.51460      1.99226     15.67621         0.585904     -0.609506     -0.014583
O      11.61952     13.68622      2.84223        -0.779312     -0.562093     -0.580023
O      11.62632     13.36441     15.65808        -0.610333      0.404624      0.163273
O      11.51817      1.86232      7.14920         0.419835      0.476581     -0.389707
O      11.67966     13.56941      7.08783        -0.417852     -0.208061     -0.105424
O      11.52680      1.87288     11.38675        -0.038585      0.231805      0.485835
O      11.53682     13.35809     11.26521         0.804571      0.452097      0.612244
O      11.60026      5.75656      2.77584        -1.288527      0.118384     -0.663104
O      11.56767      5.73648     15.93165        -0.137348      0.392053     -0.830026
O      11.46914      5.92597      6.92188        -0.256187     -0.654795      0.569890
O      11.53455      5.70884     11.19323        -0.114802      0.712799      0.549662
O      11.59074      9.68507      2.64729        -0.405165      0.058350      0.327814
O      11.55299      9.53995     15.80511        -0.179802      0.786782      0.186120
O      11.56787      9.71974      7.11475        -0.051698     -0.494440     -0.258920
O      11.52379      9.54817     11.36930         0.308306      0.078207      0.212256
O       1.89737      3.77744      2.72572         0.097832     -0.219683      0.085435
O       1.81076      3.82825     15.69276        -0.025180      0.120249      0.069760
O       1.89316      0.04869      2.63108         0.263115     -1.802593      0.569667
O       1.84526     15.43798     15.66208         0.396828      0.019350      0.680284
O      13.49722      3.92619      2.79485        -0.690396     -1.656371     -0.981572
O      13.54407      3.83911     15.68181         0.153927      0.032933      0.405595
O      13.48660     15.44805      2.67648         0.014926      0.653372      0.154983
O      13.37359     15.38567     15.60416         0.308755     -0.100542      0.100494
O       1.96554      3.91098      7.12693        -0.085352     -1.114140     -0.397284
O       1.81277      0.05898      7.08029         0.894399      0.339142     -0.331926
O      13.32516      3.88736      7.11675         0.286651      0.009102      0.104240
O      13.57453      0.09663      7.13905        -0.104379     -0.301544     -0.418503
O       1.89107      3.84142     11.50500        -0.040847      0.678170     -0.074610
O       1.85184      0.01046     11.44151         0.119627     -0.594082      0.067856
O      13.39568      3.88050     11.34087         0.431001     -0.006850      0.481337
O      13.38585     15.40921     11.46822         0.449455     -0.279645      0.234949
O       1.97914      7.61381      2.71211        -0.381028      2.068026     -0.124162
O       1.99391      7.66770     16.04314         0.253810      0.396152     -1.148009
O      13.50587      7.68160      2.72630        -0.144985      0.338535      0.081387
O      13.43295      7.74413     16.01316         0.296877     -1.114945     -0.426892
O       1.86297      7.67321      7.09806        -0.144734      0.625331      0.367556
O      13.40634      7.74454      6.93230         0.450271      0.200654      0.489748
O       1.88769      7.64157     11.41336        -0.007365      0.383184      0.109691
O      13.45965      7.65603     11.47149         0.495685     -0.254226     -0.435201
O       2.03807     11.57944      2.79937        -0.117458     -0.041772      0.028370
O       1.95420     11.48617     15.72061         0.169705      0.609511      0.412790
O      13.45497     11.68386      2.82205        -0.038151      0.124173     -0.097093
O      13.57219     11.48221     15.84520        -0.578017      0.886899     -0.449662
O       1.93817     11.65965      7.11897         0.051906     -0.234225     -0.003821
O      13.49451     11.61940      6.94213         0.268455      0.422276      0.419199
O       1.84818     11.58308     11.46911         0.071484     -0.238841      0.174720
O      13.46903     11.50334     11.46161        -0.095303     -0.146862     -0.445674
O       5.83943      3.88239      2.75019        -0.228788     -1.401653     -0.500630
O       5.72980      3.74919     15.61293         0.339018      0.848855      0.723951
O       5.79164     15.43418      2.73329         0.218401      0.189641     -0.094998
O       5.71196      0.04771     15.74165         0.257151     -0.336257      0.816133
O       5.80997      3.86674      7.12746        -0.830670     -0.402590     -0.988055
O       5.86215     15.45865      7.15557        -0.398232      0.164559     -0.021478
O       5.80290      3.92108     11.51024         0.020545     -0.226930      0.242146
O       5.80873      0.05674     11.30159        -0.114801     -0.153020      0.476093
O       5.85955      7.71574      2.85054         0.576988     -0.219023     -0.957508
O       5.82997      7.75894     15.62614        -0.122551      0.130070      0.431344
O       5.76392      7.69099      7.11700         0.358332     -0.350517     -0.283193
O       5.80258      7.74194     11.36340        -0.031794     -0.397972      0.334658
O       5.74642     11.51436      2.63779         0.147312      0.986480      0.357661
O       5.83799     11.62163     15.67219         0.055955      0.091254      0.206627
O       5.75746     11.56888      7.12246         0.073049      0.481609      0.393840
O       5.73284     11.65944     11.43704         0.238830     -0.935830     -0.053522
O       9.63169      3.76915      2.66133         0.025567      1.054481     -0.097104
O       9.65520      3.82085     15.66988        -0.421604      0.405370      0.068219
O       9.51503      0.01786      2.83702         0.852238     -0.570687     -0.535208
O       9.79309     15.46270     15.69062        -0.616721     -0.661048     -0.211376
O       9.63406      3.78138      7.01047         0.149756      1.039684      0.061114
O       9.68126     15.37978      7.03591         0.103845      1.055839     -0.037264
O       9.67428      3.81790     11.26071        -0.266201      0.895518      0.346442
O       9.64149     15.43062     11.13764         0.033050     -0.443359      1.070841
O       9.65557      7.83053      2.69534        -0.041955     -1.613266     -0.247287
O       9.65929      7.69676     15.77675        -0.281265     -0.151503     -0.119199
O       9.53711      7.71016      7.01010        -0.048559      0.048141     -0.135387
O       9.53232      7.66326     11.27037         0.150147      0.296284     -0.092045
O       9.67551     11.62721      2.72369         0.390622      0.749103      0.070496
O       9.62020     11.57237     15.75103         0.031799      0.877824     -0.078349
O       9.63835     11.52274      6.98177         0.422953      1.465136      0.176799
O       9.63598     11.55616     11.33400        -0.331873     -0.498777      0.391672
