  # total energy = -7879.00766628 
CRSYTAL
PRIMVEC
    15.464    0.0000000000000000    0.0000000000000000
     0.0000000000000000   15.464    0.0000000000000000
     0.0000000000000000    0.0000000000000000   17.350608
PRESSURE
-0.548117 -0.867882 -1.57194 0.052873 0.026974 0.010248
PRIMCOORD
320 1
Pb       4.01203      3.93291      4.50610        -0.500122      0.318620     -0.433991
Pb       4.06027      3.80064     17.18503        -0.818976      0.426106      0.268978
Pb       3.75113      0.19483      4.29158        -0.206609     -0.731485      0.414697
Pb       3.99808      0.07992     17.29690        -0.726114     -0.573032     -0.504466
Pb       0.24697      3.84141      4.49144        -0.499105     -0.015013     -0.810220
Pb      15.39272      3.66619     17.31021        -0.037584      0.634975      0.272779
Pb      15.37237     15.43230      4.19397         0.375785     -0.283860     -0.273696
Pb      15.40729     15.44774     17.32732        -0.162329     -0.086606     -0.147364
Pb       3.86430      3.90255      8.64472        -0.155552      0.242631     -0.382455
Pb       3.84344     15.34439      8.59442         0.154952      0.044021      0.127193
Pb      15.34068      3.72649      8.58834         0.269794     -0.031205     -0.311306
Pb      15.30429     15.37366      8.59566         0.450027     -0.089216     -0.504878
Pb       3.80380      3.69618     12.84660        -0.082780     -0.109197      0.254154
Pb       4.01390     15.25274     13.05646        -0.848332      0.037071     -0.766586
Pb       0.07942      3.97178     12.92582         0.105791     -0.808112      0.250625
Pb       0.06361      0.15370     12.98570         0.063569     -0.363938     -0.308040
Pb       3.71045      7.81826      4.27082         0.125289      0.024171      0.093146
Pb       3.60915      7.61444      0.05261         0.177566      0.077834     -1.093352
Pb      15.32270      7.72114      4.26874         0.220812     -0.268004     -0.211296
Pb      15.36525      7.68781     17.26535         0.148330     -0.064704     -0.266147
Pb       4.02115      7.88332      8.69024        -0.224984      0.072833     -0.178088
Pb       0.19862      7.56432      8.82569        -0.402776      0.616796     -0.866675
Pb       3.90727      7.66422     12.86950        -0.523006      0.661015     -0.036921
Pb       0.07085      7.91802     12.88793        -0.049114      0.039550     -0.107608
Pb       3.91104     11.66614      4.31617        -1.009831     -0.405683     -0.182566
Pb       3.94975     11.53603     17.32713        -0.370798      0.098664     -0.641198
Pb      15.24867     11.59842      4.33419         0.452782      0.004791     -0.968328
Pb       0.00676     11.59851     17.27233        -0.090281      0.295364     -0.381466
Pb       3.81827     11.62617      8.68362         0.162804     -0.118831     -0.083272
Pb      15.23731     11.51356      8.55668         0.128656     -0.025691      0.123207
Pb       3.85476     11.46341     13.04982        -0.157893      0.078120     -0.427071
Pb      15.35115     11.74828     12.78464         0.180160     -0.355734      0.519721
Pb       7.64678      3.81951      4.40520         0.333641      0.266571     -0.110119
Pb       7.76253      3.91258      0.00128         0.499610      0.468801     -0.138177
Pb       7.80591     15.42627      4.24101        -0.150435      0.031469      0.247618
Pb       7.60969      0.05851      0.14099         0.360447     -0.035530     -0.199028
Pb       7.81148      3.90032      8.56176         0.161215     -0.186954      0.355022
Pb       7.70493      0.14503      8.60457        -0.633014     -0.157283     -0.074970
Pb       7.76830      3.71397     12.94395         0.010395      0.416393      0.090178
Pb       7.93915     15.43740     13.13619         0.196324     -0.327889     -0.316218
Pb       7.70149      7.86137      4.31668        -0.520300     -0.080271     -0.213662
Pb       7.79458      7.67446      0.01562         0.094891     -0.365974     -0.124330
Pb       7.89374      7.63423      8.72783        -0.079824      0.398624     -0.502340
Pb       7.64840      7.65843     12.98572         0.377842     -0.202877      0.229048
Pb       7.72110     11.62040      4.29538        -0.283307     -0.245599     -0.505423
Pb       7.64056     11.40688     17.33476         0.044474      0.034693     -0.514587
Pb       7.57456     11.71034      8.55740        -0.114410      0.007156      0.058332
Pb       7.75689     11.47499     12.92680         0.273284      0.592572      0.921509
Pb      11.40800      3.79066      4.46911         0.723509      0.234133     -0.629658
Pb      11.54384      3.98847      0.02850        -0.104977     -0.078883     -0.082225
Pb      11.66467     15.34672      4.29035        -0.066120      0.265484     -0.369435
Pb      11.56304      0.09845      0.15511         0.366255      0.180037     -0.419463
Pb      11.75025      3.88948      8.80892        -0.669868     -0.463765     -0.532017
Pb      11.42566     15.38319      8.49164         0.856870     -0.122413      0.582408
Pb      11.69673      3.85793     13.14300        -0.351319     -0.441610     -0.553848
Pb      11.57074     15.31600     13.18297         0.039697      0.098497     -0.724845
Pb      11.60903      7.66683      4.19927        -0.065035      0.048076      0.279530
Pb      11.62600      7.65866     17.23038        -0.139510     -0.308631     -0.324926
Pb      11.61231      7.54752      8.78537        -0.315811      0.812913     -0.065229
Pb      11.41155      7.70143     13.09496         0.476316      0.115173     -0.318872
Pb      11.49644     11.56243      4.29037         0.599322     -0.203583     -0.457909
Pb      11.50043     11.64650     17.29414         0.286096     -0.049479     -0.599506
Pb      11.29540     11.48447      8.54278         0.965718     -0.120855      0.394980
Pb      11.62579     11.65401     12.79945        -0.171912      0.374823      0.172781
Ti       2.01758      1.91465      2.18831        -1.861642      0.423390      1.067913
Ti       1.88713      1.97489     15.34478         0.363458     -0.638203     -0.044456
Ti       1.91362     13.52752      2.22007        -1.612513     -0.538171      1.365794
Ti       1.96950     13.64608     15.35668        -0.521027     -1.197893     -1.363799
Ti      13.54573      2.01076      2.41459        -0.421886      0.136236     -1.314373
Ti      13.44512      1.92682     15.33457         0.419106     -0.364405     -0.631790
Ti      13.38784     13.52602      2.15735         1.561146     -0.842321      0.466419
Ti      13.53845     13.57154     15.30780         0.160664     -0.607747      1.385761
Ti       1.92817      1.87855      6.61509        -0.573930     -0.343284     -0.792162
Ti       1.85761     13.47358      6.60588        -0.202248      0.919347      2.670419
Ti      13.49858      1.81279      6.55565         0.304864      0.589377      1.779416
Ti      13.41236     13.38929      6.63757         0.777262      0.294286      0.538755
Ti       1.92182      1.85690     10.77087         0.400138     -0.698090      1.009747
Ti       1.93447     13.45533     10.86120         0.287693      1.501090      0.877805
Ti      13.57794      1.87867     10.96640        -0.679778     -0.294859     -0.514847
Ti      13.54025     13.60572     10.85402        -1.128871     -0.810087     -0.518063
Ti       1.91769      5.72843      2.32107        -1.104911      0.152614      0.321422
Ti       1.83574      5.75556     15.24374         1.196244      0.568359      0.983076
Ti      13.51968      5.73893      2.31395        -0.224438     -0.282371      0.087847
Ti      13.60695      5.70265     15.23301        -1.246792      1.352061      2.489791
Ti       1.86366      5.80974      6.63024         0.322775      0.266520      0.598688
Ti      13.48178      5.83156      6.81346         0.775580     -0.193799     -2.515234
Ti       1.95696      5.77895     10.94549         0.045924      0.168413      0.075439
Ti      13.52406      5.65892     11.09619        -0.522739      1.447843      0.019915
Ti       1.78302      9.67439      2.22812        -0.295147      0.771389      0.177719
Ti       1.81173      9.74653     15.36468         1.439771     -0.293649     -0.195713
Ti      13.40429      9.59656      2.15356         0.333732      0.828636      0.919404
Ti      13.53101      9.68820     15.20821        -0.142258      0.566317      1.602989
Ti       1.94283      9.76222      6.66845        -0.588714     -1.691654     -0.283032
Ti      13.46836      9.49092      6.67611        -0.106577      0.739077      1.114582
Ti       1.91058      9.76794     10.86785         0.596670     -0.945282      0.003658
Ti      13.41232      9.60118     10.93169         0.718351      0.377083      1.140999
Ti       5.81474      1.93583      2.45012         0.582580     -0.243363     -1.111394
Ti       5.83450      1.85719     15.23737        -0.511734      0.230454     -0.639727
Ti       5.64917     13.54617      2.31897         0.800730     -0.013147     -0.294174
Ti       5.84058     13.44991     15.27447         0.017930     -1.378408     -0.208788
Ti       5.77230      1.98090      6.70731         1.056196     -0.683530     -1.082287
Ti       5.76418     13.57603      6.48913        -0.049372      0.220059      0.799948
Ti       5.83571      1.86238     10.99422        -0.849915     -0.567753     -1.086257
Ti       5.84762     13.49083     11.17363        -1.077152     -0.118725     -1.269730
Ti       5.72976      5.76069      2.38258         0.586463      0.695211      1.005339
Ti       5.77315      5.77800     15.27486        -0.157613      0.318457      1.675898
Ti       5.74273      5.86052      6.67406        -0.656793      0.601871     -0.980083
Ti       5.74637      5.71429     10.98417         0.898806      0.213017     -0.004893
Ti       5.59481      9.63821      2.33542         1.722348     -0.334211      0.637908
Ti       5.78458      9.43762     15.35270        -0.706956      1.573006      0.076036
Ti       5.74850      9.74762      6.55894         0.396491     -1.030774     -0.881002
Ti       5.93046      9.63913     11.01593        -2.020629      0.044122     -0.897937
Ti       9.67539      1.94224      2.48401         0.960073      0.074138     -2.307801
Ti       9.60697      1.80452     15.41953         1.151255      1.087260     -0.760963
Ti       9.58116     13.47050      2.18909         0.684524      0.082811     -0.470891
Ti       9.66069     13.51470     15.39566         0.320418     -0.730632     -1.656479
Ti       9.73620      1.93291      6.76231        -1.049405      1.163069     -1.298251
Ti       9.59212     13.54480      6.55835         0.043209     -0.494472      0.935290
Ti       9.67203      1.94078     10.95072         0.553053      0.334397     -0.596861
Ti       9.60502     13.65293     10.89880         1.052973     -1.267848      0.779591
Ti       9.56144      5.80232      2.43580         0.883108      0.186433     -2.064836
Ti       9.63891      5.72985     15.25298        -0.264519      0.077590      0.871452
Ti       9.60095      5.85618      6.59700         0.781241     -0.287591     -0.433001
Ti       9.60792      5.77514     11.08946         0.587612     -0.366637     -0.799805
Ti       9.56981      9.66206      2.32542        -0.433435     -0.803623     -0.730356
Ti       9.65970      9.63423     15.32985        -0.054896      0.235950     -0.276261
Ti       9.58647      9.66178      6.53091         0.336836     -1.129355     -0.201319
Ti       9.63689      9.71381     11.03145         1.440362      0.032701     -1.265547
O       2.00888      1.95778      0.43120        -0.051702      0.024945     -0.146841
O       1.87725      1.99880     13.59494        -0.049923     -0.712815     -0.946582
O       2.05527     13.51296      0.52680        -0.253342      0.183995     -1.558988
O       1.90575     13.61930     13.51413         0.143592      0.318201      0.673459
O      13.45496      2.00287      0.57863         0.143489      0.060515      0.303430
O      13.51558      1.89286     13.50612         0.162113     -0.087645      0.868505
O      13.38315     13.49981      0.40481        -0.046399     -0.240052     -0.561227
O      13.54741     13.71298     13.58834         0.227157      0.084947     -1.835147
O       1.86915      1.85005      4.75784         0.420598      0.223353      1.038457
O       1.80242     13.52866      4.95521         0.052063     -0.110781     -3.063270
O      13.42292      1.74648      4.84726        -0.047418      0.364023     -1.459268
O      13.42868     13.45612      4.89357        -0.161935      0.003466     -1.265598
O       1.84582      1.88513      9.03162         0.365392      0.330073     -0.696151
O       2.03635     13.57169      9.12805         0.139459     -0.564355     -1.163358
O      13.61321      1.94772      9.14090        -0.249520      0.023872      0.832199
O      13.47005     13.44415      9.09558         0.030071      0.577317     -0.530824
O       1.86113      5.73599      0.59401         0.305757      0.012030     -1.281018
O       1.80255      5.78272     13.51965         0.232577      0.137031     -1.529140
O      13.43301      5.73989      0.53867         0.108459     -0.147059     -0.154636
O      13.60846      5.63283     13.55480        -0.324547      0.064503     -3.076902
O       1.77372      5.71798      4.87328         0.231888      0.075271     -0.835230
O      13.52896      6.10543      4.98583        -0.054840     -0.519851      1.067726
O       2.05770      5.78900      9.18121        -0.323516     -0.187315      0.317384
O      13.54051      5.74328      9.31191        -0.225494     -0.425114     -0.313079
O       1.72085      9.82739      0.44220         0.472578     -0.727109      0.455645
O       1.87608      9.62835     13.60471         0.031723      0.158508     -0.668392
O      13.46118      9.66249      0.42503         0.054787     -0.000661     -0.711262
O      13.70086      9.79206     13.51798        -0.377881     -0.638210     -1.929331
O       1.99491      9.85079      4.90992         0.118410     -0.506845     -0.198635
O      13.32193      9.52461      4.95391         0.601777     -0.198918     -0.939012
O       1.97300      9.71181      9.09593         0.069093     -0.115737     -0.117589
O      13.54245      9.71740      9.22978        -0.386483     -0.193409     -1.472745
O       5.92007      1.93963      0.63494        -0.298185     -0.387791     -0.151187
O       5.79587      1.85430     13.45246         0.128609      0.048873      0.932807
O       5.72809     13.59403      0.53598         0.043699      0.259834      0.253473
O       5.78499     13.27283     13.46768        -0.414531      0.965059      0.068753
O       5.87590      1.99911      4.84689        -0.509251      0.091905      0.564570
O       5.72612     13.52203      4.77330         0.262478      0.076786     -1.672163
O       5.82483      1.74314      9.17373         0.306556      0.689810      0.157763
O       5.79346     13.43807      9.39137         0.271433     -0.464690     -0.994825
O       5.79529      5.71644      0.66652        -0.227486     -0.019318     -1.095733
O       5.88447      5.73107     13.58506        -0.136589      0.398194     -2.227956
O       5.72628      5.71283      4.85941         0.159612     -0.206849      0.851878
O       5.73003      5.70204      9.24085        -0.112465      0.197295     -1.101673
O       5.79865      9.61096      0.60126        -0.210789      0.086285     -0.726150
O       5.95827      9.52114     13.56216        -0.629459     -0.186665     -0.118497
O       5.60653      9.65531      4.76320        -0.149109      0.564241      0.235917
O       5.80868      9.74426      9.23027         0.535781     -0.124791      0.064612
O       9.66068      1.84801      0.60271        -0.084010      0.311331      0.867175
O       9.65289      1.81027     13.60592        -0.476782     -0.359810      0.324027
O       9.74003     13.41973      0.38979        -0.450266      0.073158      0.221442
O       9.80197     13.71671     13.50597        -0.617648     -0.110347      0.557557
O       9.84781      1.95131      4.94965        -0.539400      0.093582     -0.695085
O       9.66009     13.39106      4.85716         0.118740      0.274167     -1.848611
O       9.57395      2.09818      9.14299        -0.050646     -0.897254      0.082305
O       9.57317     13.52886      9.13371        -0.133380      0.174748     -0.669898
O       9.61699      5.67276      0.40107        -0.198929      0.253845      1.998710
O       9.62674      5.80404     13.46498         0.064449     -0.206815     -0.219161
O       9.61322      5.87390      4.76984         0.077551     -0.236498      1.337879
O       9.67401      5.76734      9.23063        -0.145744      0.453910      0.841265
O       9.43464      9.64416      0.51002         0.413605      0.210024      0.176127
O       9.66950      9.58845     13.57176        -0.170527     -0.064660     -0.840519
O       9.70121      9.56894      4.75424        -0.262871      0.482582     -0.224674
O       9.65605      9.67158      9.23941        -0.540766     -0.277419      0.030289
O       3.85964      1.84154      2.61038         0.508140      0.048336      0.083355
O       3.88690      1.92073     15.60697         1.408202      0.151373      0.387357
O       3.77760     13.66033      2.67728         0.632587      0.230897      0.306856
O       3.83090     13.47848     15.69122         1.079242      0.312404     -0.033015
O      15.37107      1.96391      2.60747         0.947980     -0.184587      0.346717
O      15.45767      1.85555     15.74591        -0.398575      0.052736      0.039306
O      15.37782     13.51878      2.53364        -0.353167     -0.024216      0.377780
O       0.01803     13.62653     15.71411         0.024688      0.527736      0.425901
O       3.94911      1.70326      6.90487        -1.014247      0.632632      0.124900
O       3.88949     13.68693      6.83369        -0.481296     -0.577883      0.588801
O      15.44046      1.90949      6.87040        -0.459714      0.545094      0.289665
O      15.35378     13.41397      6.95332         0.579759      0.039152      0.430868
O       3.89517      1.92670     11.26995        -0.691939      0.208759      0.170057
O       3.82547     13.30974     11.40318         0.490850      0.562911      0.455930
O       0.01224      1.90860     11.28657         0.176497     -0.020350      0.050209
O      15.43662     13.51776     11.08456         0.528923      0.112461      0.681779
O       3.81950      5.74169      2.70242         0.259344     -0.119643      0.373805
O       3.81158      5.86396     15.57241        -0.013818     -0.664561      0.706366
O      15.42755      5.86136      2.69407        -0.355141     -0.437327      0.270017
O      15.41844      5.71884     15.63838         0.644920      0.261604      0.531035
O       3.80708      5.78537      6.89580         1.084309     -0.299892      0.577121
O      15.46181      5.59804      7.09181         0.211986      0.400998      0.306333
O       3.87085      5.75197     11.33858        -0.920150     -0.218762      0.408110
O      15.40815      5.81869     11.40666         1.439179     -0.033127     -0.438762
O       3.73221      9.66876      2.66279        -0.047722     -0.070993     -0.133502
O       3.83623      9.73752     15.76489         0.114262     -0.678389     -0.103625
O      15.40982      9.71683      2.64520        -0.948302     -0.493003      0.209623
O      15.42906      9.62146     15.66877        -0.601711     -0.498221      0.470159
O       3.93864      9.64594      7.09771        -1.254395      0.353810      0.175750
O       0.01386      9.67056      6.97605        -0.600418      0.301077      0.062193
O       3.86981      9.63650     11.25732         0.613613      0.538470      0.656234
O       0.02163      9.67245     11.19339        -0.231577     -0.109076      0.568276
O       7.79270      1.97858      2.74223         0.003110     -0.265900      0.571102
O       7.73473      1.68778     15.72811        -0.845248      0.715709     -0.105681
O       7.73646     13.51285      2.57585        -0.277129      0.003863      0.390599
O       7.74200     13.44495     15.42341        -0.725106      0.564992      0.717786
O       7.74742      2.05516      6.95975        -0.312937     -0.434204      0.570094
O       7.71953     13.41612      6.75254         0.033659      0.029344      0.910204
O       7.69094      1.82167     11.43530         0.400845      0.021527     -0.040470
O       7.71038     13.43484     11.38210         1.202109      0.666454      0.272503
O       7.69951      5.78358      2.67770        -0.395059     -0.235430      0.309242
O       7.69737      5.82231     15.68693         0.196934     -0.120244      0.141716
O       7.72821      5.76621      7.01461        -0.138589      0.369213      0.054080
O       7.71536      5.82006     11.30275        -0.033386      0.042220      0.226663
O       7.59590      9.70596      2.70281         0.369622      0.171485      0.507883
O       7.67426      9.60375     15.71970        -0.047967     -0.162822      0.327511
O       7.66581      9.54256      6.66799         0.537428      0.695448      0.812557
O       7.82794      9.53324     11.40648        -1.198885     -0.113347      0.051730
O      11.64579      2.02382      2.79914        -1.586753     -0.462839      0.269682
O      11.64560      1.93623     15.63229        -1.437171     -0.143287      0.444856
O      11.53941     13.41517      2.52181        -0.793762      0.177022      0.660750
O      11.59491     13.47568     15.51441         0.210632     -0.478194      0.802193
O      11.53554      1.94787      7.07171         1.699802     -0.388780      0.397254
O      11.54118     13.50798      6.92684        -1.082571      0.328016      0.544920
O      11.46353      1.91618     11.22058         1.649543      0.389249      0.183608
O      11.62170     13.63675     11.21646        -0.517914     -0.410490      0.555888
O      11.53701      5.88360      2.67630        -0.183569     -0.322299      0.011302
O      11.51889      5.66141     15.64867         0.160677      0.328729     -0.213385
O      11.60918      5.96579      7.09704        -0.797377     -0.643784     -0.118049
O      11.63744      5.62422     11.46543        -0.410485      0.441025      0.002930
O      11.48316      9.57028      2.52270         0.357431      0.302086      0.142454
O      11.57670      9.67954     15.57808         0.097521      0.166195      0.431624
O      11.53050      9.53370      6.97768         0.484295     -0.192838      0.570597
O      11.51799      9.70402     11.33219         0.933822     -0.108445      0.493971
O       1.85440      3.80524      2.66696         0.177495     -0.240697      0.251036
O       1.87124      3.83056     15.52854         0.236061      0.688920      0.866092
O       1.69471      0.03461      2.63929         1.158568     -0.004975     -0.132154
O       2.07710      0.02362     15.74232        -0.489062      0.350822      0.161313
O      13.46482      3.90046      2.77431         0.103801      0.066869      0.156151
O      13.45155      3.90531     15.69801         0.519060     -1.691879      0.206729
O      13.39762     15.40101      2.53194        -0.130757      0.323819      0.630995
O      13.45785      0.01507     15.82732         0.186072      0.381183     -0.130022
O       2.01876      3.79843      6.85447         0.155145     -0.419834      0.525484
O       1.76726      0.00448      6.91085         0.491830     -0.584486      0.538379
O      13.45541      3.84534      7.07991        -0.145978     -0.068377     -0.090752
O      13.50516     15.41487      6.89758        -0.374635      0.229938      0.674700
O       1.90380      3.78946     11.27910         0.221717      1.196744     -0.040234
O       1.96775     15.43611     11.01613        -0.016645      0.318362      1.124694
O      13.50791      3.77722     11.47645         0.239911      0.068112     -0.392650
O      13.54522      0.02552     11.24193         0.228233      0.212802      0.246187
O       1.81947      7.68888      2.55984         0.693382      0.974876      0.321955
O       1.89297      7.71106     15.72124        -0.314899     -0.252504      0.485662
O      13.44956      7.70238      2.53565         0.409664      0.805291      0.489256
O      13.41863      7.65164     15.63939         0.416735      0.364769      0.037875
O       1.88319      7.68709      6.92132        -0.026951      0.130148      0.543366
O      13.74650      7.63350      7.33094        -0.602677      0.922560     -0.171165
O       2.08184      7.82068     11.27917        -1.043853     -1.722182      0.181030
O      13.48551      7.76699     11.35015        -0.114721     -0.717159      0.148846
O       1.78296     11.61367      2.68321         0.776081      0.241223     -0.051789
O       1.81475     11.65389     15.64683         0.137215     -0.326841      0.282147
O      13.40963     11.54506      2.67784         0.004798     -0.292393      0.042266
O      13.73345     11.61681     15.42543        -0.734146      0.020397      0.935655
O       1.96673     11.56232      7.03781         0.354212      1.476767      0.293170
O      13.36356     11.53632      6.94999         0.382185     -1.014782      0.294281
O       1.93469     11.61148     11.24412        -0.299708     -0.569744      0.351635
O      13.49214     11.64840     11.27043         0.050595     -0.173731      0.593450
O       5.86388      3.79608      2.72949        -0.583641      0.583625      0.525255
O       5.80614      3.91914     15.68438         0.373173     -1.952033     -0.002297
O       5.98801      0.02933      2.79335        -0.890186     -0.255648     -0.390664
O       5.86039     15.37723     15.58739        -0.713672      0.905059      0.268388
O       5.77689      3.90378      7.05811        -0.488770     -0.507624     -0.050755
O       5.96445     15.42770      6.98171         0.093969      0.388066      0.110387
O       5.77624      3.82873     11.34818         0.363280     -0.332010      0.139497
O       5.64846     15.38438     11.18909         0.345335      0.241854      1.325090
O       5.75069      7.72250      2.86604        -0.470720     -0.200577     -0.747958
O       5.72918      7.65614     15.84575         0.060479      0.184478     -0.236743
O       5.72509      7.82025      6.94256         0.302915     -1.984489      0.553885
O       5.73604      7.67665     11.26899         0.414132      0.095161      0.532025
O       5.66740     11.65341      2.59028        -0.045211      0.002027      0.378940
O       5.71074     11.55827     15.71923         0.678919      0.129354      0.241805
O       5.79295     11.61054      6.85388        -0.106506      0.718482      0.666125
O       5.91102     11.47482     11.43574        -0.069818     -0.201903      0.152291
O       9.66707      3.91545      2.74398        -0.002191     -0.768575      0.395405
O       9.55861      3.75686     15.60853        -0.223965      0.029008      0.244610
O       9.71816     15.43636      2.59638        -0.192044     -0.224028      0.546696
O       9.73947     15.37108     15.75634        -0.258621      0.967499      0.421684
O       9.71144      3.87169      7.04998         0.020687      1.451962     -0.362965
O       9.62605      0.01252      6.88578        -0.184418     -0.691115      0.568022
O       9.59315      3.84478     11.38331        -0.333968     -0.139417      0.356752
O       9.74841     15.45373     11.31512        -1.236526      0.407606     -0.009114
O       9.48150      7.73732      2.65487         0.148643     -0.047784     -0.075960
O       9.67298      7.67633     15.57636         0.000806      0.140691      0.487246
O       9.59897      7.75871      7.08601        -0.187871     -1.147704      0.077061
O       9.82885      7.67608     11.42535        -0.742785     -0.009968     -0.326282
O       9.59555     11.56502      2.60915         0.067533      0.343152      0.403440
O       9.51992     11.58534     15.51783         0.603311     -0.599797      0.993926
O       9.66355     11.49842      6.87920        -0.298119      0.909603      0.329777
O       9.71272     11.63734     11.24230        -0.395900     -0.144386      0.529696
