  # total energy = -7883.80380634 
CRSYTAL
PRIMVEC
    15.464    0.0000000000000000    0.0000000000000000
     0.0000000000000000   15.464    0.0000000000000000
     0.0000000000000000    0.0000000000000000   17.350608
PRESSURE
-0.303395 -0.13268 0.042487 0.519035 0.00762 -0.009447
PRIMCOORD
320 1
Pb       3.86573      4.08449      4.37694         0.080138     -0.426047      0.047884
Pb       3.85500      3.92389      0.06279        -0.102492     -0.580189     -0.269332
Pb       3.70654     15.44718      4.31815         0.557164      0.122627     -0.465614
Pb       3.80555     15.36101     17.31307         0.278716      0.863696      0.639044
Pb       0.16419      3.87829      4.32598        -0.147364     -0.035338      0.407129
Pb      15.45412      3.85736     17.32260         0.021538     -0.430672     -0.298666
Pb       0.04618     15.41670      4.31154        -0.457630      0.448880     -0.468715
Pb       0.04116     15.42628     17.29679        -0.472300      0.461591     -0.139575
Pb       3.88858      3.86288      8.63505         0.006529      0.212540     -0.199279
Pb       3.79205     15.41791      8.64022         0.339584      0.050101     -0.103795
Pb      15.44976      3.75453      8.69439         0.340761      0.625662     -0.157258
Pb      15.36707     15.36530      8.54991         0.219876      0.216694      0.499360
Pb       3.92925      3.70009     12.91422        -0.480492      0.517998      0.316948
Pb       3.91320     15.30334     12.96786         0.386348      0.538962      0.506438
Pb       0.05603      3.78376     12.91356         0.178229      0.639728      0.348315
Pb       0.03742      0.05872     12.99168        -0.076776     -0.042111      0.151531
Pb       3.70234      7.76811      4.33359         0.654529     -0.114903      0.238920
Pb       3.72496      7.61859      0.00300         0.326651      0.649090     -0.574375
Pb      15.42192      7.72427      4.28512         0.133012     -0.340555      0.339297
Pb      15.37803      7.66990     17.23424         0.273944     -0.098655      0.185952
Pb       3.95985      7.81598      8.63612        -0.103574     -0.304329      0.143356
Pb       0.06980      7.63903      8.67602        -0.620562      0.545652      0.191355
Pb       3.87724      7.69916     12.91462        -0.290152     -0.053398      0.222089
Pb       0.01096      7.82265     13.01767        -0.080792     -0.669962     -0.244347
Pb       3.66817     11.58094      4.23189         1.266990      0.140041      0.084870
Pb       3.80332     11.57629     17.30020         0.261678     -0.079233     -0.023295
Pb      15.35910     11.49486      4.21965         0.275842      0.382741      0.453226
Pb       0.01086     11.55729     17.25931        -0.059799      0.254295     -0.473809
Pb       3.77520     11.62680      8.47305        -0.006375     -0.532753      0.694803
Pb      15.33220     11.49278      8.67578         0.401970     -0.264469      0.132713
Pb       3.84897     11.54628     12.95499         0.513642     -0.542390     -0.105537
Pb      15.36232     11.70741     12.96157        -0.165547     -0.674008      0.074810
Pb       7.65006      3.92968      4.27489         0.150651     -0.314250     -0.120436
Pb       7.71084      3.96009     17.34702         0.352443     -0.557896      0.267687
Pb       7.69020     15.41142      4.29441         0.133997      0.244654      0.072077
Pb       7.67450     15.43937      0.00745         0.002533      0.654365     -0.033175
Pb       7.71648      3.81745      8.70111         0.223073      0.282708     -0.801830
Pb       7.64715      0.07029      8.62321         0.026943      0.008024     -0.069186
Pb       7.67427      3.70943     12.92631         0.237467      0.116507     -0.003112
Pb       7.76635     15.34583     12.98147        -0.185925      0.544337      0.219378
Pb       7.61185      7.71188      4.28156         0.160667      0.451072      0.606473
Pb       7.68360      7.58016     17.31128        -0.035375      0.407445     -0.308127
Pb       7.79097      7.69362      8.66214         0.431917     -0.214027     -0.036104
Pb       7.58987      7.66426     12.92563         0.949485     -0.077487     -0.108044
Pb       7.65424     11.56885      4.14805         0.161956      0.016898      0.894005
Pb       7.68816     11.44923     17.31887        -0.277583      0.429801      0.069687
Pb       7.52790     11.63343      8.63140         0.632781     -0.329560     -0.210036
Pb       7.76031     11.59080     13.01491        -0.320892     -0.395071      0.128897
Pb      11.63478      3.85329      4.26240        -0.756446     -0.107987     -0.268407
Pb      11.65317      3.92425     17.34637        -0.308556      0.153875      0.502636
Pb      11.62454     15.41483      4.17944        -0.296042      0.420794      0.006792
Pb      11.60398      0.13833      0.01869         0.081378     -0.209970      0.319513
Pb      11.69352      3.77562      8.65573        -0.791264      0.536405     -0.461257
Pb      11.57266     15.43412      8.65260        -0.270274      0.299015     -0.367328
Pb      11.73212      3.71884     13.03734        -0.456224      0.847874      0.070854
Pb      11.73946     15.35606     13.00383        -0.746537      0.127026      0.134893
Pb      11.62936      7.76937      4.27682        -0.512243     -0.479085      0.047732
Pb      11.65699      7.77000     17.22121        -0.483735     -0.529412      0.494932
Pb      11.70679      7.70671      8.66405        -0.616896     -0.380471     -0.353381
Pb      11.57116      7.85313     13.02749        -0.496171     -0.989235     -0.462724
Pb      11.54272     11.45746      4.19507        -0.257387      0.684298      0.373074
Pb      11.57314     11.49320     17.28720        -0.058603      0.455143      0.103155
Pb      11.52975     11.45026      8.60718        -0.228846      0.131062     -0.123328
Pb      11.61491     11.61395     13.01988        -0.074704     -0.219967      0.008153
Ti       1.88815      2.01743      2.34413         0.302631     -0.527202      0.843179
Ti       1.97863      1.88374     15.33869        -0.606148      0.366027      0.500414
Ti       1.87490     13.50347      2.29080         1.467030      0.117921      0.479316
Ti       1.89848     13.44512     15.31703        -0.042252      0.878184      0.659829
Ti      13.50935      1.98738      2.34974        -0.139438     -1.255450     -1.420842
Ti      13.50895      1.97099     15.33498         1.664449     -1.023330     -0.228348
Ti      13.59560     13.50482      2.32791        -1.413818      1.167573     -0.308541
Ti      13.44570     13.49275     15.41020         0.732523      0.438738      0.675517
Ti       1.88064      1.91398      6.77206         0.771661      1.213465     -1.327539
Ti       1.87082     13.48130      6.63325         0.325388     -0.031642      1.766690
Ti      13.51221      1.99224      6.64560        -0.679412     -0.315619      0.678077
Ti      13.46269     13.52663      6.64752         0.192651      0.146551     -0.675504
Ti       1.94335      1.85687     10.99227        -0.321991      0.723147     -0.483754
Ti       1.91708     13.45452     11.13372        -0.099413      0.716587     -1.966425
Ti      13.50804      1.94583     10.99116         0.507115      0.051425      0.752373
Ti      13.51332     13.56191     10.93764        -0.288366     -0.575874      0.785653
Ti       1.89015      5.87942      2.31365         0.372732     -0.637918      0.052905
Ti       1.91345      5.73088     15.33899         0.403991      0.123299     -1.676393
Ti      13.55153      5.78841      2.41159        -0.968961     -0.242783     -0.790822
Ti      13.52122      5.77981     15.22811         0.540853      0.249206      0.096555
Ti       1.94376      5.88897      6.84095         0.400348     -1.648023     -1.759393
Ti      13.54142      5.82745      6.59900        -0.030093      0.104057     -0.593215
Ti       1.92159      5.81040     11.00353        -0.272919     -0.696400     -0.109569
Ti      13.51723      5.80730     10.97316         0.003839      0.304338      1.404164
Ti       1.94573      9.63335      2.31236         0.757212      0.472597     -0.098799
Ti       1.91966      9.58485     15.26550         0.756694     -0.047255      0.008565
Ti      13.61320      9.64275      2.26793        -0.967674     -0.304343      0.512236
Ti      13.51192      9.58938     15.29232         0.068937      1.322560      0.231818
Ti       1.88854      9.62223      6.57532        -0.342582      0.507502      1.210644
Ti      13.51933      9.67615      6.64346        -0.211119     -0.567031      2.129179
Ti       1.90163      9.62536     11.03059        -0.239807     -0.127208     -0.284735
Ti      13.46807      9.64893     11.01993         1.316746     -0.383166     -0.426800
Ti       5.66234      1.89774      2.31067         0.491512      0.463584     -0.849972
Ti       5.79960      2.01783     15.43999         0.173848     -1.741346     -0.929292
Ti       5.79600     13.53558      2.28480        -1.094545     -0.085453      0.196421
Ti       5.81331     13.55605     15.47976        -0.097636      0.513142     -1.126966
Ti       5.68769      1.87847      6.55140         0.325144      1.381784      1.401252
Ti       5.78516     13.48664      6.59752         0.079361      0.353836     -0.235733
Ti       5.75346      1.85236     10.97484         1.052939      0.157460     -0.130256
Ti       5.80517     13.51691     10.88380        -0.131785     -0.391464      1.333248
Ti       5.72947      5.90904      2.31467         0.059821     -0.925119      1.603040
Ti       5.74680      5.77899     15.29048        -0.284793      0.679747     -0.284507
Ti       5.85483      5.83482      6.72442        -0.447516     -0.784421     -0.604826
Ti       5.76782      5.77820     10.99544         0.476036     -0.309705     -0.426498
Ti       5.79693      9.68921      2.21572        -0.574758      0.503538      0.823432
Ti       5.72393      9.64154     15.35857        -0.725692      0.200903     -0.169641
Ti       5.74509      9.66142      6.62031         0.842021     -0.427992      0.132537
Ti       5.79149      9.67622     10.98037        -0.114424      0.215541      0.925749
Ti       9.50430      1.96939      2.32870         1.411759      0.283292      0.154089
Ti       9.73610      1.98258     15.39451        -1.835786     -0.364885      0.112123
Ti       9.60924     13.54414      2.34988         0.953603      0.451318      0.659686
Ti       9.65216     13.54886     15.48755        -0.392951      0.284341     -0.966040
Ti       9.58737      1.87928      6.64318         0.430679      1.601288     -1.797639
Ti       9.66806     13.53224      6.66218        -1.147114      0.037161     -0.352426
Ti       9.78619      1.87275     11.03588        -1.704044     -0.096533      0.145066
Ti       9.65740     13.39020     11.07684        -0.057330      0.873685     -1.066284
Ti       9.57661      5.86840      2.36341         1.781631     -1.327558     -1.117387
Ti       9.66910      5.77793     15.32627        -0.334328      0.508873     -1.283402
Ti       9.73611      5.77126      6.67626        -0.651818     -0.024149      0.594705
Ti       9.71226      5.67950     11.03095        -0.508039      1.911345     -1.271493
Ti       9.63121      9.61522      2.31757        -0.038296      0.140739      0.490131
Ti       9.56900      9.62462     15.43702         0.024392      0.137400     -0.807198
Ti       9.55869      9.70449      6.68914         0.159684     -0.745363     -0.108110
Ti       9.65680      9.60236     11.01891        -0.986530     -1.025247     -0.202958
O       1.78821      1.99924      0.63928         0.138549      0.141422     -1.249092
O       1.97464      1.93213     13.59434        -0.154242     -0.301011     -1.051756
O       1.82187     13.53568      0.58279        -0.178056     -0.420844     -1.431276
O       1.90950     13.52548     13.55282         0.181079      0.080564     -0.845019
O      13.60583      1.87418      0.54630        -0.171155      0.400262     -0.335378
O      13.56497      1.94541     13.52751        -0.546868     -0.164621      0.608665
O      13.64497     13.59804      0.57531         0.013188     -0.557433     -0.273899
O      13.43508     13.45544     13.67021        -0.136498      0.205987     -1.192293
O       1.95294      2.00890      4.95806        -0.442530     -0.335773      0.303800
O       1.97751     13.57931      4.95347        -0.435356      0.039944     -2.138336
O      13.52094      2.06650      4.94603         0.371970     -0.093215     -1.516646
O      13.54892     13.53155      4.87022         0.135471     -0.198586      0.435651
O       1.87424      2.01861      9.21011         0.131682     -0.559240      0.573805
O       1.90141     13.53904      9.34636         0.130265     -0.319887      0.390415
O      13.47377      1.97471      9.25192        -0.026592     -0.147587     -0.737117
O      13.53422     13.53076      9.21195        -0.205975      0.122337     -0.912659
O       1.94111      5.83048      0.54811        -0.246612      0.117953     -0.262272
O       2.04997      5.73197     13.57930        -0.109721      0.006426     -0.008161
O      13.64597      5.87473      0.63512        -0.207024     -0.199286     -0.190356
O      13.42846      5.96062     13.51293         0.008853     -0.521022     -0.040388
O       2.04070      5.85754      4.95233        -0.331873      0.118823      1.003458
O      13.54013      5.76906      4.77335        -0.101831      0.107073      0.377685
O       1.88108      5.76672      9.20028        -0.299852      0.400192     -0.149636
O      13.51445      5.80924      9.23477         0.012007      0.044180     -0.477790
O       1.99776      9.47708      0.59352        -0.308101      0.574929     -1.138025
O       1.97379      9.59683     13.51655         0.080474      0.250204     -0.420813
O      13.58671      9.63830      0.54163        -0.060446      0.117138     -0.804566
O      13.48435      9.67137     13.54912        -0.205658     -0.187515     -0.553074
O       1.89302      9.54323      4.83865        -0.145085      0.159541     -0.824174
O      13.57217      9.71412      4.95498         0.183882      0.044443     -2.735785
O       1.76430      9.68050      9.27115         0.338829     -0.122698     -0.067655
O      13.69728      9.70563      9.24962        -0.777657     -0.178783     -0.091503
O       5.65717      1.93616      0.51819         0.260032      0.203492      0.390081
O       5.77975      1.92991     13.60418        -0.237246      0.254238      0.725502
O       5.79478     13.50929      0.52459         0.168174      0.052185     -0.517174
O       5.84397     13.73447     13.66827        -0.335890     -0.590092      0.547645
O       5.69176      1.88270      4.83244         0.186031      0.049926     -1.211642
O       5.76191     13.51803      4.84896         0.069409      0.123366     -0.015512
O       5.77857      1.78071      9.22077         0.027641      0.488313     -0.154498
O       5.80615     13.67088      9.16965        -0.118423     -0.612683     -1.229451
O       5.76702      5.87883      0.61803         0.111546     -0.076226     -1.952568
O       5.65953      5.77431     13.51334         0.101563     -0.086648      0.386826
O       5.68468      5.86356      4.94012         0.394509      0.011380     -0.634978
O       5.84181      5.78593      9.24130        -0.097930      0.006483     -0.696637
O       5.77661      9.77720      0.47629        -0.121442     -0.228105     -0.275520
O       5.67523      9.77721     13.58935         0.039953     -0.308472     -0.408364
O       5.81105      9.68031      4.90121         0.009865     -0.064999     -0.839272
O       5.69938      9.78715      9.27817         0.247378     -0.591107     -1.957039
O       9.62115      1.95483      0.57516         0.157917      0.023992     -1.043570
O       9.75565      2.17051     13.66123         0.064668     -0.363782     -0.516601
O       9.60816     13.57658      0.64809        -0.074423     -0.099914     -1.722965
O       9.54777     13.50926     13.69746         0.423623     -0.269543     -0.230318
O       9.60200      1.96373      4.80859        -0.175263     -0.067713      0.934572
O       9.58658     13.59647      4.91888         0.168458      0.000779     -0.571752
O       9.75494      1.78250      9.28830         0.031598      0.115736     -0.429924
O       9.62171     13.50537      9.32170         0.295487     -0.060540      0.176562
O       9.58030      5.87285      0.55329        -0.168404      0.141739      0.129556
O       9.60244      5.81902     13.53775         0.394764     -0.365116      1.112920
O       9.80372      5.75325      4.92325        -0.334824     -0.000982     -0.347951
O       9.68818      5.90792      9.18040        -0.124424     -0.370960      1.117924
O       9.63701      9.59005      0.58912         0.011380      0.004471     -1.175665
O       9.63738      9.68042     13.70868        -0.025982      0.159111     -0.981383
O       9.68010      9.65109      4.95525        -0.204368      0.180153     -1.083731
O       9.62920      9.55650      9.26757         0.257111      0.391411     -0.817546
O       3.85324      1.95680      2.70514        -0.931320     -0.116258      0.220493
O       3.80709      1.95241     15.76349         0.524710      0.533835      0.127933
O       3.84259     13.45959      2.64519        -0.069063      0.092007      0.399305
O       3.76883     13.60600     15.88943         0.809298     -1.181381     -0.888745
O       0.00846      2.09489      2.75044         0.412267     -0.638641      0.484361
O      15.43503      1.89111     15.69174        -0.061333      0.088491      0.161002
O       0.04456     13.41941      2.73099        -1.040358      0.280312      0.514196
O       0.00772     13.46590     15.67315        -0.379644     -0.044894      0.381360
O       3.77981      2.09102      7.07690         0.394693     -1.294024      0.115445
O       3.84693     13.46491      7.00859        -0.355005      0.598641      0.281280
O      15.41660      1.96143      7.12073         0.222859     -0.227581     -0.065665
O      15.39843     13.53795      7.09864         0.737095     -0.147372     -0.511872
O       3.84432      1.85576     11.32026        -0.316237     -0.050728      0.160428
O       3.91462     13.62666     11.35828        -1.070223     -0.592552      0.148385
O      15.42918      1.85587     11.39396         0.074518      0.266665     -0.042052
O      15.36557     13.67445     11.41338         0.492574     -0.916445      0.269913
O       3.79431      5.93245      2.69636         0.680641      0.145129     -0.014028
O       3.83467      5.70430     15.80630         0.759689     -0.066484      0.104188
O       0.03680      5.77990      2.66185        -0.268377      0.110772      0.618266
O       0.01356      5.94860     15.57377        -0.618634     -0.426733      0.527367
O       3.89007      5.92819      7.09694        -0.745792      0.084086      0.464158
O      15.39624      5.87977      6.93780         0.889601     -0.052053      0.437390
O       3.80195      5.80166     11.21014         0.808439     -0.140494      0.625665
O      15.45224      5.78540     11.47662        -0.190868      0.100172     -0.351532
O       3.88354      9.64790      2.75382         0.040891      0.199544     -0.285142
O       3.80782      9.77642     15.77417         0.095296     -0.259082     -0.097968
O       0.03970      9.62548      2.61874        -1.137692      0.720413      0.471906
O      15.46259      9.57928     15.56847        -0.082934      0.474674      0.604672
O       3.82677      9.60076      6.98810        -0.314551     -0.249426      0.234512
O       0.01402      9.60392      7.08791        -0.321865      0.580398     -0.380952
O       3.82700      9.72376     11.29766        -0.519784     -0.598134      0.598067
O      15.41880      9.63932     11.49051         0.032535     -0.075131      0.065165
O       7.66635      2.08689      2.53136        -0.655956     -0.603257      0.823406
O       7.71699      1.85411     15.64130        -0.044015      0.503844      0.594259
O       7.68814     13.62657      2.73840         0.447993     -0.387152     -0.037400
O       7.75091     13.68564     15.80193        -0.595518     -0.599428      0.180026
O       7.66296      1.92016      7.00108        -0.214019      0.413191      0.249169
O       7.68295     13.42964      6.97793        -0.334623      0.525094      0.366866
O       7.78184      1.90946     11.44118        -0.237226     -0.067864     -0.193841
O       7.69619     13.40392     11.36710         0.216072      0.253319      0.290490
O       7.73295      5.87057      2.74371        -1.075965     -0.311412      0.162889
O       7.69284      5.83600     15.62538        -0.308915      0.241717      0.506449
O       7.70321      5.66251      6.99685         0.716446      0.126374      0.367640
O       7.68206      5.84664     11.32518        -0.097948     -0.564335      0.439149
O       7.71554      9.69786      2.63046         0.343034     -0.121113      0.168009
O       7.59044      9.57564     15.73584         1.183247      0.226141      0.315091
O       7.65187      9.78702      7.04180         0.554521     -0.004185      0.374668
O       7.73030      9.73601     11.36585        -0.691995     -0.034123      0.346745
O      11.62636      1.93837      2.57957        -0.426701     -0.127240      0.673791
O      11.61099      2.04375     15.76902         0.335248     -0.076794      0.135865
O      11.62815     13.52967      2.63978         0.039139      0.116560      0.377591
O      11.57089     13.49944     15.82860        -0.234641     -0.141497      0.147854
O      11.59483      1.94187      6.92580         0.013895     -0.047498      0.814200
O      11.52619     13.68312      6.98573         0.843281     -0.635259      0.394227
O      11.64436      1.99181     11.47611        -0.272876     -0.208722     -0.077180
O      11.59589     13.42278     11.39225        -0.133939      0.277954      0.377725
O      11.56353      5.87921      2.65166         0.797973     -0.082621      0.287944
O      11.66826      5.85321     15.77808        -0.785512     -0.311686     -0.151855
O      11.62820      5.80895      7.09838        -0.228018      0.104818     -0.114515
O      11.55321      5.86078     11.38532         0.424007     -0.251856      0.017088
O      11.60096      9.63234      2.68975         0.245063     -0.062175     -0.018164
O      11.58494      9.73645     15.72338        -0.137430     -0.802590      0.245891
O      11.56931      9.64302      6.96567         0.198703      0.298277      0.788062
O      11.57455      9.65986     11.33331         0.159105     -0.198223      0.346416
O       1.98260      3.93783      2.72635         0.045135      0.187705     -0.000365
O       1.83545      3.86181     15.70855         0.032137     -0.438742      0.537980
O       1.94344     15.40070      2.66415        -0.523873      0.917130      0.624417
O       1.97523     15.44046     15.79451        -0.689829      0.081212     -0.443659
O      13.44759      3.79827      2.58992         0.382867      2.585108      0.580264
O      13.58086      3.87509     15.62975        -0.154653      0.410273      0.232286
O      13.57012      0.07674      2.69686         0.646360     -1.594005      0.650509
O      13.52470     15.43728     15.71060        -0.450120      0.335257     -0.016354
O       1.89663      3.91022      7.12676        -0.292627      0.396258      0.067597
O       1.99656      0.02287      7.01874        -0.595919     -0.734932      0.213075
O      13.55174      3.96286      7.13083        -0.134865     -0.995668     -0.253365
O      13.52214     15.45435      6.96733         0.190871      0.111411      0.438189
O       1.89080      3.87015     11.45267         0.189298     -0.994992     -0.350245
O       1.84519     15.43129     11.37487         0.407113      0.294797      0.352180
O      13.49842      3.87620     11.43348         0.202227     -0.321104     -0.339584
O      13.37396     15.45994     11.32982         0.247030      0.014630      0.085902
O       1.88513      7.82164      2.75908        -0.031022     -1.840186      0.144376
O       2.08225      7.70596     15.55205        -0.259696      0.257515      0.808407
O      13.59951      7.73495      2.66035        -0.078798      0.586042      0.469504
O      13.56942      7.73389     15.68936        -0.688587     -0.030033      0.201973
O       1.83834      7.76430      7.13532         0.654253     -0.171776     -0.042979
O      13.49727      7.75260      6.97145        -0.041450     -0.094778      0.224074
O       1.95741      7.68761     11.42144        -0.390395      0.506358     -0.087770
O      13.51255      7.69198     11.36294        -0.123755      0.783679      0.059287
O       1.96626     11.56338      2.67799        -0.630908     -0.147015      0.107043
O       1.94713     11.58518     15.67538        -0.438154     -0.255665      0.316481
O      13.46459     11.61070      2.72427         0.763983     -0.954804     -0.179451
O      13.42280     11.55028     15.67352         0.835406      0.022346      0.722259
O       1.95694     11.54759      6.83656        -0.275601      0.395719      0.468002
O      13.50960     11.58255      7.10894        -0.246269      0.519916     -0.147963
O       1.81859     11.52033     11.45200         0.263182      1.666772      0.086106
O      13.51742     11.54187     11.33034         0.147673      1.088508      0.403893
O       5.74614      3.95010      2.60626        -0.125531      0.230700      0.572872
O       5.85951      3.89706     15.81140        -0.513649      0.199338     -0.177860
O       5.74346     15.42743      2.63550         0.144194      0.720120      0.353911
O       5.70314      0.02915     15.82794         0.121943     -0.068976      0.186753
O       5.62717      3.87085      6.93435         0.618372     -0.110511      0.501226
O       5.77721      0.04914      7.00957        -0.499904     -1.296604     -0.080388
O       5.77514      3.78536     11.30870        -0.094620      0.458414      0.264000
O       5.83816     15.45039     11.23707         0.065177     -0.779013      0.906890
O       5.87957      7.83468      2.62623        -0.282523     -0.813317      0.154996
O       5.62570      7.75006     15.75214         0.273520     -1.025563     -0.257932
O       5.98203      7.73516      6.99303        -0.809111      0.520671      0.617045
O       5.77861      7.72297     11.34226        -0.335585      0.136549      0.119192
O       5.86946     11.62723      2.65378        -0.350108     -0.427126      0.004695
O       5.80623     11.62366     15.69878        -0.003469      0.518556      0.313686
O       5.70877     11.54023      7.00258        -0.112963      1.210898      0.390273
O       5.61262     11.55026     11.24687         0.708189      1.641364      0.642239
O       9.69164      3.90318      2.62998        -0.260227      0.252864      0.530128
O       9.58184      3.94084     15.82177         0.548916     -0.387638      0.083562
O       9.71742      0.03456      2.66469        -0.643271     -0.231624      0.415687
O       9.70709      0.04123     15.68913         0.404910      0.077711      0.399607
O       9.62981      3.81871      7.12733         0.257542      0.204374      0.146164
O       9.54559      0.08245      7.02655         0.347757     -1.662862      0.466001
O       9.62245      3.85866     11.24038         0.213646     -0.607344      0.420795
O       9.71151      0.01187     11.50386         0.282152     -0.962342      0.034086
O       9.62893      7.70429      2.78800         0.015398      1.300657      0.128545
O       9.63705      7.74579     15.65072         0.295774     -0.753001      0.756668
O       9.52612      7.75196      7.00273         0.247875     -0.445088      0.230003
O       9.52276      7.71748     11.47992         0.646587      0.577923      0.091895
O       9.67244     11.60177      2.66785        -0.142282     -0.417747      0.201401
O       9.53909     11.56307     15.76311         0.277471      0.492919      0.574580
O       9.65347     11.63278      7.03109         0.432508      0.082452      0.495296
O       9.67703     11.49431     11.46473         0.035142      1.164554      0.226174
