  # total energy = -7877.53805416 
CRSYTAL
PRIMVEC
    15.464    0.0000000000000000    0.0000000000000000
     0.0000000000000000   15.464    0.0000000000000000
     0.0000000000000000    0.0000000000000000   17.350608
PRESSURE
-1.25395 -1.31145 -5.82721 -0.368359 0.0124 -0.04732
PRIMCOORD
320 1
Pb       3.95943      3.82859      4.37163        -0.977359      0.199941      0.709921
Pb       3.96001      3.78569     17.20003        -0.276486      0.129828      0.860254
Pb       3.82680      0.10871      4.26775         0.212059     -0.466986      0.177489
Pb       3.95101      0.05792     17.27740        -0.448799     -0.274008      0.722613
Pb       0.07801      3.82646      4.39585        -0.142947      0.375784     -0.117231
Pb      15.41862      3.75732     17.29129         0.092484      0.064723      0.586602
Pb      15.36575     15.42944      4.16097         0.587339      0.302484      1.393320
Pb      15.41467      0.00490     17.32473         0.301229     -0.169269      0.266455
Pb       3.82226      3.90251      8.60666         0.184331     -0.598108      0.091633
Pb       3.87710     15.39586      8.55727        -0.256131      0.384156      0.828080
Pb      15.42146      3.80029      8.56605        -0.402745      0.461642      0.755891
Pb      15.40600     15.43050      8.60240        -0.073949     -0.104988      0.447762
Pb       3.77355      3.79274     12.92522         0.146178      0.158994      0.233862
Pb       3.88654     15.36164     13.01615         0.200737      0.424786      0.312794
Pb       0.04230      3.94031     12.94418        -0.194120     -0.544876      0.157055
Pb       0.04976      0.06310     12.94174        -0.132944     -0.003047      0.453541
Pb       3.77356      7.78718      4.24315         0.139276     -0.502482      0.375528
Pb       3.73626      7.67277     17.34312         0.026179      0.119925     -0.117038
Pb      15.36784      7.73135      4.26076         0.275428     -0.737827      0.237284
Pb      15.41673      7.70661     17.27336         0.165852     -0.055393      0.501822
Pb       3.92387      7.79417      8.64416        -0.301549     -0.031228     -0.037339
Pb       0.09878      7.64477      8.73657        -0.489746      0.178570     -0.279875
Pb       3.84845      7.70104     12.94626         0.341587     -0.109202     -0.283580
Pb       0.05345      7.79903     12.90780        -0.623982     -0.131117      0.155047
Pb       3.89169     11.63700      4.31604        -0.082398      0.085772     -0.039545
Pb       3.93438     11.56204     17.29585        -0.674276      0.323894      0.465274
Pb      15.35291     11.64322      4.29867         0.233381     -0.524184      0.494335
Pb      15.45662     11.62498     17.28543        -0.137695     -0.226210      0.222137
Pb       3.85530     11.60486      8.70273        -0.119522     -0.398084     -0.176406
Pb      15.35283     11.56818      8.57502         0.342383     -0.273893      0.474084
Pb       3.82003     11.50446     13.00197         0.312755      0.588955     -0.012017
Pb      15.44717     11.66192     12.85848        -0.319163     -0.567239      0.595558
Pb       7.71382      3.80652      4.38427        -0.159555      0.103956     -0.060324
Pb       7.76510      3.82733     17.29787        -0.488394      0.481097      0.726912
Pb       7.80576     15.42794      4.26828        -0.610811      0.273973      0.123902
Pb       7.66469      0.02071      0.02872        -0.096011     -0.065357      0.244435
Pb       7.78063      3.92733      8.54734        -0.311552     -0.567778      1.100225
Pb       7.74425      0.04625      8.60740        -0.108094     -0.592460      0.955430
Pb       7.75475      3.82053     12.96421        -0.230674     -0.201145      0.349955
Pb       7.86391      0.01826     13.04382        -0.921929     -0.469264      0.232318
Pb       7.72699      7.78627      4.30799         0.001503      0.011642      0.168244
Pb       7.78474      7.72335     17.34359        -0.458275     -0.340051     -0.143788
Pb       7.79090      7.69844      8.66437         0.331977     -0.310969      0.415559
Pb       7.72622      7.69334     13.00661        -0.264702     -0.030724     -0.275089
Pb       7.73907     11.64227      4.32852        -0.135043     -0.391258      0.011642
Pb       7.68641     11.51642     17.29730        -0.147049      0.228039      0.330876
Pb       7.66350     11.65443      8.54524         0.461608     -0.105179      1.250394
Pb       7.74618     11.50241     12.96587        -0.118416      0.654525     -0.443352
Pb      11.46161      3.82005      4.42557         0.465382     -0.293462     -0.576836
Pb      11.50669      3.88855     17.31364         0.512125      0.095502      0.840573
Pb      11.61706     15.38672      4.33220        -0.521789      0.545683      0.154365
Pb      11.54688      0.02266      0.02907         0.193757      0.004256      0.540198
Pb      11.61581      3.90939      8.73592         0.268971     -0.375642     -0.617912
Pb      11.48437     15.38275      8.53055        -0.004020      0.424162      0.723186
Pb      11.61034      3.89335     13.01274        -0.015522     -0.215386      0.048045
Pb      11.52677     15.38798     13.07326         0.176219      0.303406     -0.134910
Pb      11.57335      7.69017      4.24234         0.133383     -0.210711      0.410737
Pb      11.56465      7.64924     17.25492         0.217012      0.492011      0.752173
Pb      11.56413      7.63545      8.73879        -0.163299     -0.067182     -0.530269
Pb      11.48108      7.66032     13.01548         0.300176      0.300693      0.035640
Pb      11.52532     11.62671      4.29657         0.265155     -0.294662      0.232703
Pb      11.52169     11.67829     17.24696         0.361647     -0.900753      1.211599
Pb      11.42717     11.54825      8.59960         0.155918      0.260731      0.155892
Pb      11.59197     11.64812     12.82957        -0.114885     -1.118496      1.454256
Ti       1.80332      1.92066      2.35543         1.936273     -0.000170     -1.715093
Ti       1.92728      1.80874     15.35910         0.195142     -0.015634     -1.496784
Ti       1.91686     13.49499      2.37520         0.734150      0.235816     -1.543805
Ti       1.83063     13.40651     15.35726         1.051718      0.795793     -0.554272
Ti      13.43882      1.88606      2.36395        -0.312338      0.954574     -0.974060
Ti      13.49576      1.86995     15.34049         0.502278      0.239928     -0.071756
Ti      13.53521     13.49393      2.35008        -0.409397     -0.032638     -1.520367
Ti      13.40379     13.49276     15.37638         0.649450     -0.320260     -1.165607
Ti       1.86246      1.80393      6.79477         0.849042      0.800791     -0.509798
Ti       1.89502     13.45498      6.59240         0.403687     -0.019188     -0.633427
Ti      13.45688      1.88070      6.56934        -0.334750      0.976336     -0.836870
Ti      13.49028     13.51781      6.67209        -0.434267     -0.145050     -0.518165
Ti       1.97603      1.89332     11.04606        -0.712541      0.622181     -1.441340
Ti       1.97239     13.59243     10.94135        -0.489255     -0.635753     -0.943679
Ti      13.39712      1.94108     11.05450         1.136212      0.179317     -0.679004
Ti      13.43723     13.55817     11.02648         0.652287      0.112730     -1.409040
Ti       1.93227      5.73562      2.35497        -0.424531      0.098092     -0.642467
Ti       1.91515      5.62582     15.32080         0.121656      0.309211     -0.947221
Ti      13.47272      5.63114      2.24605         0.744974      0.531737     -0.256330
Ti      13.57737      5.76464     15.35671         0.218721     -0.076769     -1.274601
Ti       1.94915      5.77400      6.73009         0.041568     -0.659543     -1.305137
Ti      13.49433      5.79439      6.50700        -0.082804     -0.873986      0.401398
Ti       1.90594      5.83493     10.88325        -0.625042     -1.254730     -0.273810
Ti      13.47797      5.84541     11.02293         0.692996     -0.758884     -0.163926
Ti       1.89744      9.65277      2.33250         0.352252      0.110468     -0.447988
Ti       1.87919      9.56625     15.27000         0.024401      0.499539     -0.300536
Ti      13.52550      9.55445      2.31169        -0.478071      0.003991     -1.177892
Ti      13.44915      9.62522     15.35288         0.415276      0.549703     -1.380803
Ti       1.87448      9.60277      6.68335        -0.072865      0.579489     -0.521008
Ti      13.39753      9.59282      6.66896         0.839521      0.336065      0.236324
Ti       1.96005      9.72865     11.00353        -0.766342     -0.334154     -1.517725
Ti      13.38177      9.62525     10.89607         1.488749     -0.083999     -0.963551
Ti       5.73530      2.00574      2.33985        -0.335002     -0.801287     -0.949488
Ti       5.89117      1.97675     15.21705        -0.513267     -0.498633     -0.501356
Ti       5.79170     13.53682      2.34074        -0.419367      0.344413     -0.848357
Ti       5.78164     13.54912     15.38418         0.038205     -0.137375     -1.330270
Ti       5.79227      1.91110      6.70511        -0.525659      0.368736     -0.766627
Ti       5.70705     13.52682      6.67358         0.514349     -0.588643     -1.167999
Ti       5.86326      1.93942     10.93911         0.240224     -0.654456     -0.743340
Ti       5.74865     13.58999     10.96037         1.123086     -0.553782      0.089837
Ti       5.83444      5.75989      2.35127        -0.361527     -0.224378     -0.673594
Ti       5.77345      5.86184     15.24886         0.338537     -0.917135     -0.978609
Ti       5.88332      5.79985      6.68722        -0.221884     -1.097763     -0.192208
Ti       5.77064      5.75835     10.92776         0.979452      0.015690      0.292164
Ti       5.89578      9.63821      2.24270        -0.772493      0.551098      0.141324
Ti       5.70078      9.67813     15.24856         0.666181     -0.409960     -0.156438
Ti       5.84561      9.61234      6.73203         0.131747      0.432497     -0.615553
Ti       5.72052      9.68227     10.92100         1.155703      0.016150     -0.020870
Ti       9.55313      1.93510      2.22918         0.857666     -0.471271      0.182219
Ti       9.72641      1.93973     15.41362        -1.094975     -0.316188     -0.808257
Ti       9.66460     13.54861      2.33856        -0.349046      0.076880     -0.184796
Ti       9.56397     13.56320     15.48509        -0.227770     -0.336462     -1.303331
Ti       9.59017      1.87193      6.56371         0.391891     -0.203417     -1.029196
Ti       9.57877     13.54160      6.57871        -0.166481     -0.163912     -0.478163
Ti       9.67857      1.82314     10.98292        -0.411985      0.193969     -1.463599
Ti       9.64173     13.47991     10.93070        -1.478472      0.136892     -1.375086
Ti       9.64265      5.72454      2.43379        -0.095243     -0.326572     -1.668209
Ti       9.66486      5.76534     15.37919        -0.798255      0.391779     -1.303605
Ti       9.66910      5.67079      6.58102         0.120790      0.920009      0.097085
Ti       9.58441      5.67205     11.01988         0.488233      0.217670     -1.549362
Ti       9.76877      9.62509      2.24433        -0.554678      0.279612      0.295092
Ti       9.62661      9.67101     15.28677         0.157687     -0.174332     -0.813924
Ti       9.63696      9.61588      6.66938        -0.783961     -0.281780     -0.838938
Ti       9.56927      9.54867     10.97400        -0.068776      0.907858     -1.183475
O       1.88402      1.85425      0.51465        -0.217287      0.250586      1.531063
O       1.88427      1.92790     13.43017         0.360714     -0.162208      2.514691
O       1.88720     13.50367      0.53558        -0.372632     -0.284175      1.355470
O       2.02329     13.45708     13.54166        -0.219071     -0.237316      1.551811
O      13.66279      1.85073      0.50615        -0.582165      0.055615      1.729819
O      13.37042      1.86017     13.56877         0.101673     -0.047564      1.055162
O      13.64712     13.49169      0.51927        -0.474338      0.091370      1.659681
O      13.25162     13.41007     13.53613         0.598102      0.176098      1.468325
O       1.90797      1.92408      5.02736        -0.245728     -0.277865      0.465750
O       2.12329     13.53536      4.77176        -1.021742     -0.259691      1.998203
O      13.48382      1.90318      4.70378         0.160046     -0.072774      2.105149
O      13.43988     13.64915      4.86681         0.341362     -0.617852      1.178103
O       1.96472      1.79514      9.16671        -0.283998      0.116538      2.086644
O       1.92679     13.60153      9.09991         0.046566     -0.219496      2.536886
O      13.27722      2.01896      9.27757         0.616298     -0.420435      0.991799
O      13.43561     13.60608      9.18981         0.042144     -0.145973      1.877363
O       1.84000      5.79656      0.54344         0.433119      0.090594      1.288214
O       1.83500      5.44426     13.46951         0.758252      1.345853      2.271760
O      13.55276      5.72350      0.38429        -0.228179     -0.051533      1.521672
O      13.60481      5.85183     13.45769        -0.487109     -0.220944      2.603226
O       1.93006      5.74354      4.88918        -0.250411      0.301767      1.816525
O      13.51641      5.64793      4.73281        -0.300080      0.232456      1.383058
O       1.79868      5.76605      9.05999         0.532921      0.214007      1.464351
O      13.50045      5.77259      9.21003        -0.434676      0.214981      1.319253
O       1.91014      9.65353      0.53763         0.011782     -0.186042      1.107423
O       2.12426      9.65056     13.40989        -0.593762     -0.280040      1.593946
O      13.51681      9.55675      0.48380        -0.084097      0.158362      1.947568
O      13.49473      9.72701     13.53189        -0.083774     -0.476293      1.691423
O       1.78237      9.51857      4.88047         0.001257      0.188144      1.612253
O      13.46641      9.79307      4.88775         0.180518     -0.598209      0.648725
O       2.04898      9.71679      9.14682        -0.295544     -0.429011      1.627489
O      13.34317      9.55370      9.01569         0.104407      0.133258      2.646162
O       5.59198      2.17035      0.50801         0.832098     -0.710589      1.807650
O       6.04523      1.84342     13.42562        -0.863577      0.339597      1.630519
O       5.86954     13.58232      0.52688        -0.337599     -0.500408      1.272044
O       5.97472     13.43249     13.53945        -0.720965      0.276313      1.865269
O       5.72647      1.95817      4.86997         0.241294     -0.261496      1.327949
O       5.62209     13.39020      4.83714         0.473110      0.399650      1.822913
O       5.88889      1.89614      9.05640        -0.356088     -0.038336      2.565262
O       5.64567     13.50722      9.17419         0.198837      0.195602      0.823873
O       5.85932      5.52625      0.55840        -0.216891      0.810952      1.488231
O       5.86343      5.76121     13.38960        -0.454231      0.467977      2.396871
O       5.89760      5.74290      4.94141        -0.090102      0.257461     -0.463439
O       6.16641      5.63092      9.15048        -1.529476      0.565057      1.869442
O       5.71860      9.72843      0.46586         0.383755     -0.266367      1.155876
O       5.75502      9.60795     13.39234        -0.445672      0.137207      2.069020
O       6.17081      9.57928      4.94039        -0.961667      0.037797      1.255105
O       5.68737      9.68907      9.10572        -0.077900     -0.554065      1.361100
O       9.70195      1.89981      0.38070        -0.355717      0.311100      1.572540
O       9.76143      1.89070     13.58848         0.003073      0.010342      1.650566
O       9.72431     13.57191      0.52978        -0.285689     -0.171626      0.944009
O       9.47097     13.52199     13.66805         0.671513     -0.197153      1.487920
O       9.50657      1.74914      4.67366         0.210935      0.748677      2.868283
O       9.49468     13.69349      4.72645         0.490968     -0.766499      1.700582
O       9.59817      1.74773      9.12357         0.406094      0.374130      1.854269
O       9.65322     13.69626      9.08705         0.201435     -0.863920      2.027397
O       9.58226      5.63129      0.50753         0.257261      0.631505      1.791440
O       9.64089      5.83388     13.50374         0.281276     -0.122001      2.363221
O       9.63562      5.56393      4.76406         0.155964      0.572152      0.689016
O       9.60647      5.58725      9.13081         0.192329      0.348326      2.390839
O       9.84422      9.60240      0.45675        -0.664850      0.044990      1.519924
O       9.62983      9.60743     13.44284         0.090710     -0.028450      1.631497
O       9.42646      9.55816      4.80202         0.810867      0.173942      2.303646
O       9.61202      9.67416      9.13876         0.595716     -0.357711      1.561789
O       3.80329      1.96074      2.83711         0.217685     -0.111830     -0.581711
O       3.89972      1.82016     15.74865        -0.581803      0.100734     -0.979911
O       3.82229     13.47290      2.73019         0.390100     -0.050371     -0.456699
O       3.86749     13.64057     15.89198         0.122739     -1.007910     -1.209322
O       0.01954      1.98351      2.84800        -0.819831     -0.481373     -0.607479
O       0.02160      1.87575     15.76529        -0.470075     -0.024944     -0.671409
O      15.39600     13.48564      2.84721         0.180513      0.423982     -0.600119
O      15.40969     13.49411     15.66676         0.098941     -0.428401     -0.247771
O       3.79962      1.94288      7.15784         0.542924     -0.279651     -0.526710
O       3.82528     13.32380      7.09775        -0.002220      0.626498     -0.636621
O      15.34270      1.96141      7.16716         0.488687     -1.087417     -0.715258
O      15.38288     13.54688      7.02761         0.284858      0.051531     -0.369727
O       3.84858      1.88314     11.51365         0.917054     -0.116573     -0.926806
O       3.88019     13.55007     11.53306         0.061980      0.168402     -0.973099
O       0.00607      1.87419     11.45943        -0.223626      0.053804     -0.731880
O       0.05880     13.45824     11.41563        -0.330963      0.447628     -0.691104
O       3.81100      5.75590      2.78351         0.683057      0.405629     -0.535901
O       3.85795      5.88651     15.71714         0.032815     -0.145908     -0.510579
O      15.31458      5.76693      2.74184         1.279155     -0.019593     -0.264581
O       0.06038      5.79236     15.74881        -0.826473     -0.105650     -0.542791
O       3.97670      5.66452      7.04906        -1.412353      0.405220      0.210102
O      15.41857      5.86401      7.04916        -0.246911     -0.100227     -0.497452
O       3.86055      5.68187     11.24606         0.396709      0.750334     -0.352389
O       0.01749      5.68852     11.45575        -0.391885      0.639109     -1.052902
O       3.75819      9.59136      2.81552         0.913073      0.692800     -0.732149
O       3.82589      9.64779     15.79588         0.316844     -0.355994     -0.811326
O      15.37474      9.44147      2.72041         0.060985      1.202705     -0.369497
O      15.43771      9.66705     15.68295         0.039979     -0.302709     -0.313722
O       3.87080      9.75655      6.95298        -0.167648     -0.941683     -0.067390
O      15.34485      9.54672      7.26010         0.838277     -0.145611     -1.126451
O       3.85661      9.47425     11.40251         0.428821      0.264466     -0.495208
O       0.01572      9.75822     11.46540         0.369325     -0.432246     -0.858638
O       7.69637      1.89521      2.58479        -0.671243      0.382064     -0.187724
O       7.72439      2.04605     15.74160         0.268787     -0.394429     -0.388800
O       7.64788     13.44954      2.78690         0.770434      0.423157     -0.701285
O       7.69233     13.51325     15.99177         0.525426     -0.519416     -0.834106
O       7.71937      1.66378      7.05546         0.060247      1.220997     -1.284530
O       7.69754     13.51654      7.05398        -0.739619      0.247628     -0.563167
O       7.79690      1.78172     11.45749        -0.201139      1.338300     -0.918883
O       7.80994     13.45098     11.36068        -0.739975     -0.130944     -0.298041
O       7.74841      5.71024      2.82971        -0.694285      0.206654     -0.717009
O       7.65701      5.66295     15.81938         0.388972      0.533152     -0.849268
O       7.79703      5.88301      7.04747        -0.136754     -0.633930     -0.411522
O       7.80281      5.69544     11.53526        -0.731123      0.072365     -0.857825
O       7.79558      9.61433      2.58521        -0.241892     -0.025864     -0.571530
O       7.65068      9.79240     15.66259         0.449611     -0.446356     -0.160070
O       7.79914      9.61348      7.30181        -0.774684     -0.580728     -1.213038
O       7.70677      9.57309     11.43109        -0.495846      0.604366     -0.661640
O      11.49270      1.83065      2.75990         0.842351      0.367314     -0.883476
O      11.55210      1.93909     15.91607         0.973124     -0.327831     -1.097651
O      11.56794     13.53282      2.84738         0.187765      0.230659     -0.903722
O      11.56004     13.56398     15.90325        -0.449394      0.314754     -0.873327
O      11.56955      1.94565      6.90966        -0.936556     -0.071623     -0.219276
O      11.47419     13.54228      6.96653         0.743272     -0.724170     -0.222871
O      11.58311      1.82352     11.44526        -0.581770     -0.134644      0.068257
O      11.51595     13.41991     11.44541         0.634208      1.226425     -0.813656
O      11.55767      5.63009      2.80353        -0.179512      0.130014     -0.593020
O      11.61478      5.79268     15.79177        -0.619576     -0.197366     -1.021907
O      11.52817      5.55023      7.00913         0.612546      0.405531     -0.387637
O      11.47939      5.91586     11.46425         1.229110     -0.482880     -0.564120
O      11.61872      9.64061      2.87130        -0.408706      0.229071     -0.760574
O      11.55471      9.56164     15.72305        -0.286518     -0.020085     -0.513022
O      11.51679      9.80604      7.06667        -0.566375     -0.436268     -0.672137
O      11.63357      9.44132     11.27663        -0.869948      0.321051      0.099204
O       1.96568      3.83430      2.85143        -0.701821      0.228231     -0.635630
O       1.94506      3.79064     15.79981        -0.056371      0.226560     -0.751252
O       1.92808     15.43451      2.75862        -0.478145      0.505401     -0.203488
O       1.88512     15.40029     15.76314         0.003274      0.233166     -0.600233
O      13.51966      3.79113      2.64354        -0.269683     -0.262076     -0.229427
O      13.59555      3.80221     15.72880        -0.521379      0.363579     -0.574827
O      13.50018      0.00964      2.76500         0.194029     -0.663190     -0.640362
O      13.53594     15.40277     15.82493        -0.512546      0.423005     -0.793589
O       1.87994      3.80728      7.22486        -0.042495      0.494757     -0.820806
O       1.92221     15.32345      7.14084        -0.186155      0.809185     -0.820805
O      13.47974      3.83171      7.06851         0.346245     -0.010601     -0.518133
O      13.39035     15.46099      7.12634         0.760014     -0.010909     -0.804144
O       1.95800      3.92152     11.37979        -0.027802     -1.394892     -0.730915
O       1.97771     15.44537     11.55057        -0.104809     -0.516756     -0.993810
O      13.41120      3.87823     11.46561        -0.157206     -0.138210     -0.434460
O      13.52148     15.40995     11.58243        -0.314558     -0.453477     -0.938103
O       1.94251      7.74021      2.78082        -0.534613     -0.876843     -0.359440
O       1.91255      7.72349     15.75128         0.079980     -0.157920     -0.560290
O      13.39163      7.61966      2.73758        -0.054493      0.856653     -0.446992
O      13.45949      7.69570     15.82737         0.567947     -0.338591     -0.945927
O       1.97556      7.67002      7.23260         0.167915      0.571904     -0.840531
O      13.21438      7.67545      6.92085         0.361941     -0.166912     -0.327086
O       1.83946      7.69052     11.30240         0.416601      0.104248     -0.025834
O      13.67473      7.68344     11.43625        -0.402234      0.869898     -0.676882
O       1.83506     11.62858      2.79859        -0.280038     -1.289508     -0.317288
O       1.88096     11.47488     15.77892         0.449321      1.015576     -0.601136
O      13.49308     11.65507      2.80916         0.022958     -1.087316     -0.496825
O      13.40059     11.57965     15.85075         0.384245      0.002764     -0.717002
O       1.80884     11.57706      7.05731        -0.267180     -0.373954     -0.523940
O      13.55724     11.56242      7.16743        -0.702663      0.872537     -0.914500
O       2.10394     11.57343     11.30769        -0.171438      0.706796      0.011294
O      13.48618     11.54878     11.38894        -0.171563      0.236377     -0.713890
O       5.70836      3.86477      2.92995         0.902302      0.162310     -1.085724
O       5.62314      3.81111     15.57828         0.553746      0.834120     -0.464773
O       5.78304      0.04368      2.63694        -0.351459     -0.279642     -0.030403
O       5.89676     15.42866     15.78358        -0.094317      0.701403     -0.520592
O       5.88434      3.78562      7.08222         0.121615      0.007214     -0.507335
O       5.71787     15.39301      7.07962        -0.300466     -0.267898     -0.743700
O       5.86538      3.78835     11.44569        -0.061229      0.179458     -0.773661
O       5.95244      0.00735     11.40651        -1.018111     -0.522509     -0.562367
O       5.77033      7.72959      2.67701         0.207425     -0.251794     -0.298281
O       5.89637      7.73267     15.75762        -0.393853      0.033094     -0.582801
O       5.83853      7.59455      7.21997        -0.395630      2.177525     -0.499001
O       5.91098      7.67272     11.38225        -0.774031     -0.498601     -0.746828
O       5.80521     11.56449      2.78404        -0.197772     -0.823476     -0.607070
O       5.72016     11.57510     15.75938         0.127689      0.075993     -0.483457
O       5.87219     11.49576      7.15656        -0.390894      0.590937     -0.946176
O       5.73653     11.59581     11.22866        -0.092793     -0.701568      0.316671
O       9.56775      3.77674      2.77050         0.371664      0.081837     -0.521592
O       9.68354      3.91168     15.80457         0.210680     -0.494823     -0.932476
O       9.58361     15.46075      2.70799        -0.023297     -0.450701     -0.819496
O       9.53770     15.45405     15.84053         0.572609      0.332078     -0.628418
O       9.47694      3.81636      6.99072         0.455046     -1.468466     -0.912237
O       9.61740     15.39644      7.01493         0.244632      0.873339     -0.631823
O       9.76304      3.75697     11.46387        -0.209177      0.409027     -0.515499
O       9.57608     15.43905     11.50240         1.374701     -0.766822     -0.675537
O       9.73701      7.66008      2.73168        -0.167711      0.330282     -0.657256
O       9.50455      7.75783     15.81092         0.482534     -0.813526     -0.728368
O       9.74723      7.56429      7.16000         0.055999      1.513397     -0.836497
O       9.56870      7.70456     11.32443         0.170371     -0.674841     -0.017951
O       9.70772     11.63036      2.77192        -0.191178     -0.841839     -0.681294
O       9.71439     11.52096     15.81313        -0.492726      0.735537     -0.616714
O       9.45877     11.57786      7.03409         1.019613      0.042147     -0.708821
O       9.68571     11.51503     11.33921         0.047734      0.263486     -0.289440
