  # total energy = -7882.43115655 
CRSYTAL
PRIMVEC
    15.464    0.0000000000000000    0.0000000000000000
     0.0000000000000000   15.464    0.0000000000000000
     0.0000000000000000    0.0000000000000000   17.350608
PRESSURE
1.16467 1.06289 3.29558 -0.359406 -0.072127 0.002429
PRIMCOORD
320 1
Pb       4.00682      3.82754      4.42074        -0.604029      0.608936     -0.018752
Pb       4.02718      3.75582     17.13513        -0.668887      0.670742      0.588714
Pb       3.81443      0.17922      4.24412        -0.194841     -0.713587      0.937522
Pb       4.00502      0.09504     17.25552        -0.774237     -0.365825     -0.009369
Pb       0.14004      3.81986      4.43815        -0.326241     -0.059266     -0.231171
Pb      15.40166      3.69823     17.27678         0.247814      0.486046      0.407486
Pb      15.33247     15.43139      4.10426         0.783641      0.264682      1.765546
Pb      15.39533      0.01494     17.32514         0.428229     -0.438897      0.056292
Pb       3.81377      3.92211      8.58142         0.447011     -0.230857      0.714329
Pb       3.88872     15.37318      8.51765        -0.224517      0.038829      1.031716
Pb      15.38910      3.78068      8.52569         0.192186     -0.029642      0.583857
Pb      15.37138     15.41622      8.57850         0.139783     -0.222553      0.487411
Pb       3.73983      3.76392     12.87814         0.999082     -0.164047      0.374788
Pb       3.91765     15.31458     13.03382         0.240554      0.618878     -0.317371
Pb       0.07264      3.98204     12.91810        -0.282327     -0.547066      0.420789
Pb       0.08370      0.11456     12.91735        -0.632532     -0.486330      0.460419
Pb       3.73235      7.82409      4.19956         0.615116     -0.710438      0.780727
Pb       3.67025      7.65020     17.34192         0.363627      0.186204     -0.045833
Pb      15.32635      7.72400      4.22896         0.667277      0.112178      0.425122
Pb      15.40416      7.70207     17.24267         0.164387      0.003170      0.478415
Pb       3.96714      7.84991      8.63253        -0.378791     -0.470423      0.319202
Pb       0.16553      7.60411      8.76793        -0.567691      0.241487     -0.196558
Pb       3.86426      7.68844     12.90412        -0.074392      0.212669     -0.152524
Pb       0.08092      7.85504     12.85954        -0.566605     -0.292178      0.270780
Pb       3.92086     11.67033      4.30867        -0.231305     -0.520786      0.210999
Pb       3.96948     11.55506     17.28450        -0.383049     -0.270383      0.162789
Pb      15.29721     11.66320      4.29802         0.446210     -0.643853      0.156928
Pb      15.46157     11.64357     17.25884        -0.113169     -0.397247      0.406218
Pb       3.85673     11.61121      8.72433         0.073228     -0.110443     -0.479318
Pb      15.30277     11.55575      8.52589         0.124687      0.223098      0.439442
Pb       3.81039     11.47872     13.00621         0.759131     -0.025579      0.109035
Pb      15.43943     11.70099     12.78295        -0.429144     -0.287337      0.886554
Pb       7.70727      3.78249      4.42252        -0.170980      0.445728     -0.571182
Pb       7.78285      3.83637     17.29437        -0.331414      0.509269      0.284816
Pb       7.84656     15.43173      4.23527        -1.013249      0.252950      0.434772
Pb       7.63206      0.04156      0.06452         0.301492      0.029827      0.046931
Pb       7.81126      3.95756      8.51049        -0.225375     -1.054755      0.784210
Pb       7.75831      0.07676      8.58970        -0.651697     -0.014785      0.212163
Pb       7.77377      3.79780     12.95044        -0.229190     -0.054663      0.398728
Pb       7.93900      0.02788     13.08108        -0.890701     -0.208797     -0.133102
Pb       7.73277      7.83673      4.30031        -0.330195     -0.407576     -0.350369
Pb       7.81423      7.72277     17.34153        -0.496788     -0.044800      0.018751
Pb       7.84674      7.68018      8.68060        -0.452298      0.098391     -0.109029
Pb       7.71836      7.67959     13.00336         0.050441     -0.275917      0.020826
Pb       7.75064     11.66745      4.32707        -0.378228     -0.751205     -0.305897
Pb       7.66690     11.47904     17.28489        -0.017641     -0.205024      0.336833
Pb       7.64259     11.69860      8.50213        -0.196536     -0.334153      0.700924
Pb       7.76571     11.47101     12.93543        -0.517759      0.652649      0.301786
Pb      11.39738      3.79836      4.47237         0.900288      0.057987     -0.680486
Pb      11.47875      3.92043     17.31648         0.621123     -0.037642      0.159859
Pb      11.63240     15.36317      4.33742         0.084146      0.412339     -0.090432
Pb      11.53312      0.05308      0.07093         0.375061     -0.315481     -0.015178
Pb      11.65560      3.93341      8.76703         0.084550     -0.948961     -0.120660
Pb      11.43193     15.35651      8.46974         0.796756      0.689922      0.989531
Pb      11.63080      3.91612     13.03352        -0.426999     -0.714724      0.409843
Pb      11.50286     15.35920     13.12225         0.470117      0.241016     -0.300244
Pb      11.57703      7.66886      4.20298         0.155658      0.186383      0.533300
Pb      11.55873      7.62245     17.21749         0.441350      0.569896      0.692757
Pb      11.54986      7.58599      8.76744         0.354248      0.601118     -0.264807
Pb      11.42705      7.63665     13.03138         0.343796      0.675934     -0.154314
Pb      11.50480     11.64459      4.28635         0.565255     -0.808834      0.254186
Pb      11.48994     11.71351     17.22609         0.282669     -0.620454      0.693581
Pb      11.33071     11.53595      8.55880         1.020331      0.065960      0.440061
Pb      11.59648     11.66272     12.75895        -0.060014     -0.331667      0.908730
Ti       1.88847      1.93536      2.36409        -0.628624      0.077618      0.264510
Ti       1.92798      1.80902     15.34265         0.351446      0.271884      0.493229
Ti       1.98517     13.49014      2.39307        -1.166812     -0.322065     -0.142876
Ti       1.92482     13.41157     15.40770         0.024411      0.666567      0.347306
Ti      13.43164      1.92612      2.37560         0.536815      0.274619      1.465283
Ti      13.50714      1.90540     15.39027        -0.179982     -0.448105      0.100041
Ti      13.50744     13.48511      2.34699         0.019830     -0.682759     -0.064259
Ti      13.44213     13.50035     15.39324         0.352194     -0.082299     -0.123151
Ti       1.91639      1.84969      6.82715        -0.443373     -0.170823     -0.724749
Ti       1.87732     13.43503      6.64770         0.104790      0.550944     -0.167354
Ti      13.41727      1.91785      6.61250         0.096943     -0.324527      0.263952
Ti      13.43213     13.54789      6.70008         0.644834     -0.407253      0.328849
Ti       1.95620      1.88024     11.01817         0.501337     -0.560018      0.515239
Ti       1.96757     13.53655     11.04847        -0.047396      0.571953     -0.184928
Ti      13.46966      1.92894     11.11302        -0.498063     -0.738527     -0.047858
Ti      13.48213     13.61917     11.00534        -0.580706     -0.187171     -0.581155
Ti       1.90291      5.73341      2.41255         0.379290      0.089322     -0.015994
Ti       1.93165      5.64360     15.36751         0.285736      0.687353      1.458462
Ti      13.53071      5.64658      2.34323        -0.142471     -0.016696      0.120242
Ti      13.58389      5.74111     15.36060        -0.400719      0.461610      0.459528
Ti       1.94075      5.79319      6.82035         0.044104      0.299402     -0.865359
Ti      13.49542      5.77614      6.57285         0.224331     -0.093579     -0.053529
Ti       1.96509      5.73977     10.92186         0.062840      0.675151     -0.826138
Ti      13.51916      5.76723     11.09407        -0.063332      1.170490     -0.172660
Ti       1.91876      9.65500      2.38985        -0.483060     -0.142260      0.480347
Ti       1.86592      9.61708     15.29840         0.901554     -0.471577      1.223341
Ti      13.49483      9.55572      2.34108        -0.037625      0.843183     -0.649662
Ti      13.46009      9.64584     15.33793         0.274851     -0.043568     -0.368606
Ti       1.85189      9.61550      6.73953         0.385724     -0.282862      0.748160
Ti      13.45436      9.57217      6.75575        -0.515421      0.031881     -0.743681
Ti       1.92945      9.74135     10.95560         0.824405     -0.955703      1.385747
Ti      13.45354      9.66065     10.94932        -0.422752     -0.768922      0.692377
Ti       5.75389      1.97249      2.38694         0.360079     -0.024004      0.227092
Ti       5.89726      1.98613     15.24168        -0.722637     -0.213907     -1.020039
Ti       5.76751     13.56188      2.35811         0.171537     -0.665579      0.497375
Ti       5.81243     13.54698     15.43278        -0.568027     -0.583761     -0.644084
Ti       5.74559      1.88580      6.73168         0.443184     -0.038597     -0.009894
Ti       5.72289     13.50070      6.65845        -0.310619      0.375038      0.625986
Ti       5.88907      1.92822     11.00156        -0.824390     -0.969905      0.514451
Ti       5.78843     13.53809     11.01296        -0.002582      0.210540     -0.509487
Ti       5.77845      5.76426      2.39651         0.508010      0.584338      0.217043
Ti       5.79536      5.85730     15.26426        -0.083570     -0.269745      0.944358
Ti       5.86678      5.76505      6.74036        -0.988237      0.679624     -1.016882
Ti       5.85041      5.73218     11.02531        -0.588107      0.049457      0.543335
Ti       5.84279      9.66806      2.27583         0.013987     -0.734733      1.272946
Ti       5.76664      9.56614     15.33095        -0.409887      0.811101      1.213972
Ti       5.80972      9.60189      6.76192        -0.418732      0.503495      0.765714
Ti       5.82771      9.61735     10.97062        -1.530045      0.175517      0.110905
Ti       9.61024      1.89575      2.32640         0.176849      0.356503      0.061380
Ti       9.71381      1.90589     15.49227        -0.198406      0.385867     -1.015412
Ti       9.64083     13.51814      2.39164        -0.133393     -0.472122     -1.088526
Ti       9.51755     13.56391     15.55361         0.960039     -0.491282     -0.365318
Ti       9.57915      1.83141      6.54842         0.472352      0.898020      0.958503
Ti       9.56280     13.49589      6.60658         0.000754      0.088294      0.104403
Ti       9.68027      1.79726     11.00274         0.858679      0.555032     -0.401203
Ti       9.53843     13.46307     10.92219         1.050564      0.132849     -0.028716
Ti       9.66472      5.68153      2.41583        -0.789185      0.674639      0.441623
Ti       9.64421      5.80285     15.41814        -0.498846     -0.450625     -0.463313
Ti       9.75442      5.72753      6.58390        -0.956056      0.239877     -0.600651
Ti       9.64587      5.64985     11.05220        -0.098156      0.409066      1.242723
Ti       9.71360      9.62849      2.31155        -0.612561     -0.304366     -0.241611
Ti       9.67672      9.66871     15.33622        -0.804451     -0.067576      0.545661
Ti       9.60793      9.59586      6.73728         0.134928     -0.289993      0.500015
Ti       9.57312      9.62618     10.98360         1.384381     -0.769527      0.060653
O       1.85777      1.89661      0.63697         0.100800      0.075823     -0.887238
O       1.98248      1.93653     13.62580        -0.383451     -0.255029     -1.685718
O       1.75394     13.44275      0.66869         0.471074      0.021126     -0.466087
O       1.97153     13.35077     13.68265         0.098009      0.442301     -1.342775
O      13.55835      1.83796      0.67145         0.084795      0.005376     -2.071459
O      13.40595      1.81514     13.68864         0.245435      0.334585     -1.163138
O      13.52347     13.46930      0.60889        -0.033235      0.038092     -0.770887
O      13.36152     13.33022     13.65780         0.163414      0.440820     -0.639778
O       1.88621      1.87799      5.08588         0.267515      0.385255     -0.712588
O       1.94110     13.43073      4.92387        -0.065577      0.031111     -0.938474
O      13.43197      1.85814      4.88523         0.097802      0.213086     -0.808372
O      13.45389     13.45806      4.96933        -0.092223      0.181507     -0.994560
O       1.89132      1.80825      9.32201         0.073149      0.102494     -1.534225
O       1.95327     13.55792      9.34395         0.017604     -0.222190     -1.260789
O      13.34730      1.95678      9.38377         0.152884      0.029363     -0.626666
O      13.42510     13.58478      9.26741         0.168544      0.236769     -0.776987
O       1.99785      5.83940      0.69258        -0.129326     -0.273122     -1.334857
O       1.99163      5.63395     13.67178        -0.316159      0.126484     -2.154567
O      13.50781      5.72688      0.59435        -0.046882     -0.154897     -0.622648
O      13.53095      5.79715     13.63453         0.094303     -0.080117     -1.483441
O       1.90841      5.77474      5.07328        -0.058756     -0.134798     -0.610172
O      13.37762      5.57179      4.83552         0.396604      0.486832      0.180679
O       1.82429      5.77759      9.14074         0.196100     -0.192082      0.530228
O      13.25610      5.85848      9.36044         0.616623     -0.674754     -0.850418
O       1.96602      9.52907      0.68312        -0.144413      0.190083     -1.173039
O       1.91141      9.54548     13.56942         0.229610      0.474803     -1.258912
O      13.44163      9.53105      0.59345         0.094636      0.220320     -0.309225
O      13.46199      9.64472     13.59403         0.168434      0.048620     -0.283948
O       1.73004      9.47399      5.06492         0.169973      0.072829     -2.211201
O      13.46901      9.62095      5.00223         0.265424      0.075585      0.031601
O       1.98031      9.65121      9.27058        -0.088611      0.054920     -1.825975
O      13.34755      9.52635      9.23561        -0.007463      0.216128     -0.979623
O       5.67550      2.06228      0.65149         0.096353     -0.266169     -1.222639
O       5.91910      1.90859     13.48284         0.088597     -0.224044      0.366719
O       5.72005     13.44879      0.63458         0.351025      0.401423     -0.861039
O       5.88714     13.53814     13.69172        -0.041164      0.136802     -0.781600
O       5.71849      1.88859      4.98903        -0.255130      0.289947     -1.427005
O       5.74369     13.43573      4.96090         0.064211     -0.059996     -2.196316
O       5.86913      1.80196      9.27158         0.188193      0.322782     -1.257305
O       5.71917     13.53346      9.24955         0.159468     -0.302356     -0.739480
O       5.81381      5.64897      0.66992        -0.117585     -0.026676     -0.909830
O       5.80119      5.89019     13.54845        -0.060147      0.060168     -1.406137
O       5.83144      5.84684      4.98190         0.087253     -0.368006      0.367583
O       5.90283      5.73781      9.31651         0.275546     -0.202149     -1.813471
O       5.79837      9.68458      0.57302        -0.118381      0.096463     -1.707167
O       5.62739      9.63877     13.61405         0.436141     -0.197115     -1.610232
O       6.06976      9.57782      5.08915        -0.122680      0.239955     -2.210250
O       5.65919      9.60473      9.23856         0.394207      0.427531     -0.880130
O       9.57825      2.03643      0.57564         0.216675     -0.264122     -1.142292
O       9.72310      1.84057     13.73007        -0.292684     -0.189010     -0.361393
O       9.64404     13.54366      0.62545         0.000942     -0.190327     -0.226127
O       9.55334     13.45894     13.82634        -0.257572      0.531171     -1.347590
O       9.52640      1.84546      4.81949         0.099547     -0.129945     -1.636346
O       9.59686     13.52923      4.85322        -0.149796      0.171640     -0.887713
O       9.70580      1.81653      9.23326        -0.094003     -0.195717     -0.020074
O       9.62849     13.45273      9.17031        -0.211695      0.501936     -0.846478
O       9.57253      5.73209      0.66154         0.210169     -0.200721     -1.438419
O       9.64845      5.83299     13.69029         0.021530     -0.133838     -1.799540
O       9.70813      5.71516      4.80239        -0.010560     -0.032939      0.745248
O       9.68223      5.54483      9.33832         0.060118      0.546107     -1.680059
O       9.72154      9.59858      0.57293         0.086864      0.010017     -1.007963
O       9.59325      9.54943     13.61774        -0.093657      0.242060     -1.656791
O       9.53197      9.56485      5.05256        -0.257858      0.205495     -2.621787
O       9.72461      9.56081      9.25008        -0.407900      0.039431     -0.881155
O       3.80654      2.00994      2.77325         0.040838     -0.220235      0.234349
O       3.86763      1.80009     15.56554         0.601790      0.297639      0.782572
O       3.87222     13.38470      2.65269        -0.429520      0.192975      0.513301
O       3.90256     13.55121     15.73615        -0.273678      0.265237      0.416029
O      15.40934      1.90535      2.78475         0.255224     -0.044638     -0.011479
O      15.44981      1.81975     15.70818        -0.312685      0.381026      0.321247
O      15.43915     13.52720      2.77143        -0.465698     -0.464696     -0.148234
O      15.43254     13.35826     15.64677        -0.101756      0.456763      0.456825
O       3.88706      1.99550      7.18387        -0.841859      0.015381     -0.104782
O       3.79496     13.42873      6.98087         0.099768     -0.205368      0.692741
O      15.42069      1.75399      7.16649         0.007873      1.091163     -0.187344
O      15.42428     13.54779      7.07235        -0.448037     -0.117577      0.167819
O       3.96297      1.87883     11.40347        -1.051550     -0.072295      0.163192
O       3.89853     13.68136     11.31646        -0.134532     -0.568775      0.865002
O      15.41809      1.89504     11.41744         0.306174      0.229802      0.244085
O      15.45286     13.53560     11.34354        -0.064152     -0.129410      0.414020
O       3.88501      5.77389      2.79759        -0.423932     -0.172483      0.339981
O       3.86224      5.82171     15.71349        -0.000989     -0.142800      0.261750
O      15.46055      5.74834      2.71011        -0.886831     -0.128119      0.420376
O      15.46330      5.66976     15.74669         0.285818      0.252826      0.153440
O       3.86343      5.74248      7.13855         0.703137     -0.094114     -0.033813
O      15.36946      5.80755      7.05237        -0.308173      0.284910      0.271553
O       3.84220      5.75027     11.17912        -0.221973     -0.283577      0.770979
O       0.00112      5.72096     11.33110         0.146193     -0.117311      0.296899
O       3.88772      9.68851      2.75708        -0.595277     -0.251593      0.141982
O       3.87056      9.60463     15.76566        -0.289856      0.004687      0.043118
O      15.41559      9.64631      2.74489        -0.512657     -0.439356      0.110970
O      15.46129      9.65213     15.65332        -0.433327      0.042253      0.373365
O       3.82246      9.62988      7.01856         0.168654      0.374449      0.296534
O      15.37720      9.40316      7.19091        -0.622706      0.818114      0.126437
O       3.87438      9.57313     11.33038        -0.414601      0.076931      0.675518
O       0.03878      9.77093     11.24431        -0.582599     -0.168841      0.433795
O       7.63912      1.90183      2.55489         0.449380     -0.318890      0.877634
O       7.72709      1.94534     15.70394        -0.042174      0.340315      0.467830
O       7.69816     13.56534      2.74481        -0.154796     -0.360040      0.135551
O       7.65932     13.47541     15.93038         0.282648      0.519459      0.276966
O       7.66403      1.81637      6.92275         0.495075     -0.233970      0.743107
O       7.64065     13.66462      6.97912         0.791458     -0.497333      0.316631
O       7.81408      1.97665     11.37701         0.298024     -0.443258      0.388172
O       7.71395     13.40887     11.28961         0.342822     -0.046303      0.575759
O       7.71902      5.67016      2.75840         0.374927      0.349946      0.389681
O       7.70756      5.72399     15.68914        -0.126173     -0.058990      0.500377
O       7.78782      5.78398      7.08923         0.383164      0.413405     -0.083784
O       7.73205      5.67072     11.47334         0.686619      0.107896      0.041270
O       7.76918      9.66028      2.48458         0.204836     -0.356623      1.141287
O       7.71097      9.68689     15.64858        -0.003023     -0.103913      0.559132
O       7.70175      9.53738      7.23401         0.373856      0.464086      0.378872
O       7.68131      9.71492     11.26218         0.405977     -0.312488      0.641462
O      11.53807      1.81403      2.63441        -0.280739      0.021423      0.444693
O      11.61812      1.89727     15.82366        -0.345315     -0.136193      0.564642
O      11.55651     13.57165      2.74410        -0.201531     -0.328544      0.130257
O      11.50424     13.64070     15.84385         0.315997     -0.447761      0.202799
O      11.50517      1.91896      6.85247         0.426592      0.046053      0.544408
O      11.50246     13.52029      6.93541        -0.401940     -0.119937      0.322180
O      11.52339      1.80445     11.58455         0.588098      0.363249     -0.160561
O      11.52405     13.60279     11.33948         0.157235     -0.733817      0.412353
O      11.56055      5.62876      2.77348         0.175063      0.080377     -0.178935
O      11.56402      5.77452     15.68583         0.310289      0.017180      0.524730
O      11.56397      5.54130      7.04457        -0.146355      0.209956      0.058854
O      11.60936      5.85357     11.38993        -0.828564     -0.104649      0.752420
O      11.56640      9.70490      2.86069         0.301048     -0.315238     -0.156955
O      11.52485      9.52536     15.66471         0.836306      0.201414      0.266214
O      11.45478      9.76849      7.01846         1.050673     -0.043924      0.495245
O      11.46748      9.52185     11.36664         1.047422      0.176263      0.267691
O       1.83476      3.82557      2.81799         0.377101     -0.024371      0.147190
O       1.91222      3.75650     15.69470         0.109945      0.055448      0.514733
O       1.85227     15.45817      2.75082         0.808928     -0.369062     -0.064636
O       1.92088     15.39834     15.80603        -0.218654     -0.290463     -0.051855
O      13.50968      3.77756      2.68379        -0.067470      0.136108      0.133256
O      13.46134      3.86093     15.70257         0.244440     -0.917480      0.416364
O      13.46082     15.37382      2.75435        -0.106986      0.328867     -0.035356
O      13.49398     15.39959     15.74795         0.209098      0.159381      0.385480
O       1.85733      3.85169      7.11554        -0.119423     -0.607444      0.424171
O       1.96997     15.41344      7.01722         0.033997     -0.177875      0.578138
O      13.61184      3.79213      7.03996        -0.586053      0.457424      0.177083
O      13.46000      0.02340      6.94905        -0.283213     -0.784634      0.711194
O       1.91303      3.77348     11.32241         0.075155      1.029582      0.359408
O       1.95198     15.44660     11.47275        -0.174366      0.148217      0.495509
O      13.42174      3.84957     11.52172         0.327825      0.143875     -0.181324
O      13.49366     15.45220     11.48628         0.276134      0.038948      0.216754
O       1.82420      7.64361      2.79812         0.494586      0.871286      0.305247
O       1.94582      7.70723     15.68804        -0.458160     -0.336735      0.358812
O      13.43775      7.65556      2.62649        -0.003726     -0.128516      0.650019
O      13.55817      7.65862     15.77955        -0.192747      0.448873     -0.106779
O       1.96932      7.69634      7.15235        -0.309549     -0.269638      0.597192
O      13.17622      7.66022      6.92547         0.367552     -0.373391      0.405937
O       1.93374      7.65961     11.37908        -0.389360      0.062164     -0.167553
O      13.65127      7.76080     11.33959        -0.190229     -0.311498      0.446813
O       1.80788     11.50348      2.82926         0.516839      0.946126     -0.092909
O       2.01399     11.53535     15.76642        -0.190815     -0.180114      0.234544
O      13.45686     11.53941      2.77155         0.038281      0.717216     -0.027967
O      13.43594     11.54827     15.76462        -0.284750     -0.127751      0.305780
O       1.76731     11.52204      7.02286         0.059271      0.402144      0.526041
O      13.42800     11.62560      7.12035         0.435072     -0.581704      0.097092
O       2.08776     11.63122     11.38446        -0.434411     -0.419777      0.036735
O      13.41786     11.59911     11.27475         0.317882     -0.179297      0.288031
O       5.84205      3.81963      2.86104        -0.570700      0.110648      0.381143
O       5.69279      3.89560     15.49803         0.368714     -0.716701      0.600892
O       5.65883     15.44487      2.73213         0.263881      0.159132     -0.193553
O       5.90175      0.08110     15.79844        -0.342870     -0.616495      0.122762
O       5.89750      3.85071      7.02034        -0.356938      0.258964      0.287887
O       5.65085     15.44659      6.94758         0.116873     -0.334418      0.563204
O       5.83338      3.81620     11.42400        -0.069658      0.255339      0.142507
O       5.95184     15.42465     11.30776         0.015425     -0.042303      0.837542
O       5.85301      7.73912      2.69473        -0.141669     -0.212565      0.256508
O       5.88221      7.71842     15.72384        -0.115458     -0.290520      0.171952
O       5.77042      7.75342      7.11161         0.294569     -1.638479      0.470879
O       5.82548      7.65692     11.24952         0.176009      0.609051      0.895959
O       5.83823     11.50578      2.79213         0.058912      1.292929      0.246999
O       5.75017     11.59413     15.75198         0.318283     -0.143940      0.131171
O       5.77504     11.60156      7.07166         0.241271     -0.252754      0.374980
O       5.71799     11.53813     11.38939         0.033339      0.396230      0.269770
O       9.61515      3.75797      2.74666         0.045435      0.176548      0.462446
O       9.70916      3.83410     15.70024        -0.238383      0.182888      0.694690
O       9.53888     15.45408      2.59898         0.342172     -0.334642      0.565244
O       9.57970      0.03435     15.84162        -0.242261     -0.427741      0.533950
O       9.54039      3.72111      6.85280         0.068762      1.511302      0.358069
O       9.66383     15.45030      6.93634        -0.393949     -0.989539      0.338414
O       9.77500      3.76346     11.37019        -0.090750      0.476447      0.529929
O       9.72037     15.33683     11.48342        -1.167145      0.538117     -0.189387
O       9.77793      7.69136      2.68154        -0.574700     -0.140094      0.178491
O       9.58667      7.68619     15.66000        -0.028831      0.354006      0.848020
O       9.74571      7.68420      6.99244        -0.204506     -1.569041      0.555018
O       9.50447      7.64437     11.43095         0.254788      0.096351     -0.146440
O       9.63987     11.55443      2.70890        -0.007566      0.802791      0.364512
O       9.61812     11.58896     15.69216         0.283432     -0.272397      0.696386
O       9.50651     11.61086      6.92923        -0.193605      0.319598      0.497928
O       9.66043     11.53951     11.26997        -0.119267      0.382722      0.431351
