  # total energy = -7883.04409552 
CRSYTAL
PRIMVEC
    15.464    0.0000000000000000    0.0000000000000000
     0.0000000000000000   15.464    0.0000000000000000
     0.0000000000000000    0.0000000000000000   17.350608
PRESSURE
-0.414618 -0.56016 -0.992865 -0.201845 -0.066136 0.016149
PRIMCOORD
320 1
Pb       3.88301      4.01959      4.25619         0.322675     -0.619618      0.391959
Pb       3.89687      3.92208      0.09520        -0.577287     -0.947206     -0.102886
Pb       3.84879     15.40842      4.27621         0.118245      0.605051     -0.056586
Pb       3.87899     15.45490     17.21443         0.106590      0.226191      0.548387
Pb       0.13720      3.75027      4.35060        -0.548065      0.343342     -0.131022
Pb       0.01536      3.74434     17.30705         0.258400      0.102721     -0.184848
Pb       0.10325     15.42662      4.31556        -0.167795     -0.057844      0.197698
Pb       0.05788     15.37382     17.30173        -0.299783      0.192076      0.235302
Pb       3.76322      3.96404      8.66807         0.348411     -0.395234      0.247027
Pb       3.77267     15.37553      8.67593        -0.153571      0.545628     -0.392697
Pb       0.02434      3.75391      8.69139        -0.188604      0.132404     -0.015708
Pb      15.36772     15.32172      8.56072         0.585669     -0.087546      0.064990
Pb       3.74568      3.81607     12.98202         0.137580     -0.032371     -0.377513
Pb       3.82338     15.33156     13.03155         0.124864      0.336358     -0.162504
Pb       0.12033      3.96444     12.99880        -0.426469     -0.192378     -0.010805
Pb       0.02279      0.14327     12.94755        -0.508795     -0.505245      0.365777
Pb       3.71410      7.88377      4.33549         0.051645     -0.471643     -0.036798
Pb       3.69995      7.61383     17.30808         0.086344      0.175574      0.149073
Pb      15.36114      7.69442      4.27218         0.649079      0.083477      0.142626
Pb      15.39165      7.64295     17.26967         0.271095     -0.085331     -0.069801
Pb       4.01824      7.87254      8.57283        -0.626519     -0.829520      0.652086
Pb       0.12488      7.61141      8.59118        -0.286137      0.011298     -0.239272
Pb       3.73966      7.59723     13.04470        -0.213013      0.122991     -0.565842
Pb       0.03083      7.87247     12.97683        -0.073749     -0.445697      0.054563
Pb       3.78271     11.63626      4.22734         0.271102     -0.230305     -0.381945
Pb       3.78412     11.56898     17.26960         0.426701     -0.076211      0.171118
Pb      15.44878     11.57600      4.25765        -0.383757     -0.000835     -0.257447
Pb       0.03831     11.58302     17.19578        -0.491666     -0.080643      0.748172
Pb       3.79807     11.59217      8.47313         0.067925      0.633067      0.391183
Pb      15.35137     11.46061      8.61203         0.452439      0.948476      0.771074
Pb       3.79471     11.48022     13.02555        -0.253043      0.080801     -0.470991
Pb      15.45837     11.87791     12.94494        -0.196545     -0.815244     -0.251665
Pb       7.66095      3.78761      4.27545         0.311750      0.130903      0.256242
Pb       7.74438      3.93974     17.31679         0.112740     -1.322881      0.347350
Pb       7.76714     15.45088      4.29672        -0.089632      0.148198     -0.233760
Pb       7.70592     15.42566     17.29122        -0.456274      0.295288      0.547411
Pb       7.72277      3.90596      8.78604         0.398724      0.122379     -0.604229
Pb       7.61518      0.11377      8.69527        -0.010078      0.010354     -0.551555
Pb       7.63860      3.80870     12.94217         0.184812     -0.276213     -0.040322
Pb       7.83161     15.41685     12.93539        -0.280524      0.316992      0.269490
Pb       7.65656      7.74683      4.35063         0.332846     -0.123917     -0.290324
Pb       7.67206      7.61588     17.28141         0.458844      0.431734     -0.021510
Pb       7.85095      7.76791      8.67852        -0.062558     -0.248751      0.064957
Pb       7.52122      7.62567     12.97191         0.804777      0.427139     -0.480125
Pb       7.76830     11.59590      4.18042        -0.166160     -0.024736      0.107386
Pb       7.71577     11.47098     17.32979         0.350254      0.244734      0.161585
Pb       7.54709     11.63320      8.65589        -0.009546      0.086211     -0.447386
Pb       7.79191     11.52190     13.10941         0.069158     -0.101566     -0.666420
Pb      11.55712      3.73767      4.27239         0.115894      0.588905      0.251138
Pb      11.59478      3.90357      0.06308        -0.321829     -0.206663     -0.495179
Pb      11.62131     15.37289      4.27004        -0.153551     -0.101791     -0.011916
Pb      11.52918      0.15282      0.00263         0.088091     -0.536142      0.251114
Pb      11.61711      3.92209      8.55370        -0.187923     -0.335490      0.563191
Pb      11.50938     15.42462      8.62332         0.116925      0.160524     -0.430828
Pb      11.59873      3.90141     13.03505        -0.031905     -0.129601      0.068448
Pb      11.72874     15.39465     12.95747        -0.513277      0.379375      0.338288
Pb      11.66409      7.70584      4.36666        -0.420156     -0.265982      0.111915
Pb      11.68207      7.82940     17.25162         0.085619     -0.589681     -0.026816
Pb      11.72068      7.68606      8.68073        -0.273934     -0.153074     -0.207854
Pb      11.56450      7.84595     12.98619        -0.038093     -0.712187     -0.005155
Pb      11.61542     11.45307      4.26108         0.150840      0.220767     -0.237441
Pb      11.53838     11.52745     17.22225        -0.088869      0.336787      0.458998
Pb      11.39873     11.46973      8.62522         0.652617      0.350634      0.257807
Pb      11.60977     11.62073     13.01667        -0.193860      0.203353     -0.341265
Ti       1.93124      1.87325      2.34238         1.360087      0.110362     -1.906949
Ti       1.94300      1.83421     15.34961        -0.407671      1.868725      0.326522
Ti       1.93379     13.54276      2.23585        -0.302415      0.102192      0.152656
Ti       1.89582     13.50563     15.30084         0.406922     -0.092415     -1.801259
Ti      13.54010      1.83238      2.28693         0.616571      1.312985      0.804970
Ti      13.48551      1.89492     15.37062        -0.022589      0.175719     -0.597974
Ti      13.53753     13.50403      2.34654        -0.008261     -0.677651     -1.061110
Ti      13.47574     13.58171     15.42587        -0.207742     -0.612224      0.225644
Ti       1.90240      1.92377      6.69004         0.630532     -1.325949      0.568297
Ti       1.90434     13.49605      6.55995        -0.047955      0.912333      0.414657
Ti      13.54645      1.92088      6.61940        -0.059028     -0.270786     -0.739815
Ti      13.42883     13.44656      6.65927         0.293674      0.254358     -0.488265
Ti       1.78242      1.87381     11.01266         1.185149      0.741768     -1.353102
Ti       1.92068     13.51101     11.01502        -0.906989     -0.681071     -0.609400
Ti      13.40457      1.95408     11.00822         1.056505     -0.079245      0.234693
Ti      13.50357     13.50319     10.92735         0.460664     -0.478953     -1.371395
Ti       1.92844      5.74005      2.35929        -0.471795      0.550752     -1.083409
Ti       1.88999      5.69071     15.34731        -0.214754      0.055939     -0.332949
Ti      13.47753      5.73011      2.37200        -0.333021     -0.384352     -0.060534
Ti      13.51693      5.67463     15.27470         0.316221      0.499235     -0.689949
Ti       1.96920      5.72797      6.60653        -0.199525      1.053777      0.154963
Ti      13.54952      5.75464      6.67507         0.256877      0.049660     -0.687825
Ti       1.85031      5.80920     10.91101         1.609399     -0.512377      0.052767
Ti      13.55485      5.74441     10.99574         0.247977      0.225024      0.042944
Ti       1.91411      9.65024      2.23869         0.024681     -0.255614      0.054019
Ti       1.96641      9.67217     15.34297        -0.489415     -1.424410     -0.309983
Ti      13.48484      9.55340      2.30917         0.532914      2.160669     -0.742233
Ti      13.57140      9.69724     15.29697         0.339120      0.126881      0.316966
Ti       1.97674      9.65212      6.63588        -1.090281     -0.166925      0.143749
Ti      13.55529      9.69231      6.72488         0.046747     -0.948775     -1.985876
Ti       1.84836      9.62916     10.87720         0.098320      0.310286      1.718558
Ti      13.50495      9.59230     11.00092         0.466045      0.837660     -0.535330
Ti       5.77496      1.92219      2.33323        -0.197643      0.281692     -1.414744
Ti       5.71175      1.93832     15.32947         1.144016     -1.287555     -0.919087
Ti       5.82093     13.53607      2.22185        -0.285389      0.061011      0.596670
Ti       5.84386     13.45724     15.32022        -0.376960      0.639316      0.731881
Ti       5.75535      2.01318      6.72541        -0.266193     -0.384783     -0.065829
Ti       5.73881     13.69129      6.50939         0.188199     -0.433969      1.590761
Ti       5.68021      1.86702     11.09341        -0.138585     -0.040688     -0.246280
Ti       5.75952     13.48604     11.02806         0.103789      0.198888      0.617210
Ti       5.78822      5.80348      2.30376        -0.568238      0.144538      0.032687
Ti       5.72509      5.69059     15.42579        -0.313882     -0.095758     -0.272127
Ti       5.81932      5.84575      6.71710        -0.304966     -0.503381      1.401887
Ti       5.74022      5.76608     10.96697        -0.595489      0.086151     -0.822967
Ti       5.77802      9.59042      2.27667        -0.734305      0.984082     -0.245083
Ti       5.81187      9.62866     15.44608        -0.104307      0.098776     -0.276633
Ti       5.79378      9.75332      6.57354         0.232199     -0.431661      0.243339
Ti       5.69439      9.66888     11.00936         0.424199     -0.554636     -0.684656
Ti       9.71756      1.85787      2.36793        -1.393632      0.354402      0.587991
Ti       9.53287      1.87504     15.36911         0.510779      0.961217     -0.312527
Ti       9.62907     13.44597      2.24848         0.753539      0.527602      0.079491
Ti       9.62202     13.59043     15.45177         0.507198     -0.928988     -0.731161
Ti       9.67572      1.95206      6.59789        -0.336275     -0.181776      0.047630
Ti       9.54536     13.52656      6.68770        -0.129570      0.121624      0.145710
Ti       9.66686      1.92964     10.97795        -0.000935      0.541697      0.452006
Ti       9.66229     13.61148     10.93222         0.080513     -1.060697      1.576751
Ti       9.54639      5.76366      2.31871         1.210429     -0.422411      0.344911
Ti       9.66630      5.73777     15.28972         0.903044     -0.405723     -1.418003
Ti       9.62981      5.77499      6.65250         0.027963     -0.051893     -0.111142
Ti       9.75001      5.76801     11.19436        -0.894723      0.626756     -1.062161
Ti       9.64678      9.53584      2.26786        -0.697865      0.752734      0.600139
Ti       9.66193      9.58251     15.27394        -0.344823      0.494617     -0.132659
Ti       9.67456      9.64201      6.58903        -0.377687     -0.656147     -0.653667
Ti       9.66318      9.68479     11.03332        -0.522989     -0.227110      1.907701
O       2.08414      1.81438      0.51905        -0.723450      0.295107      0.269647
O       1.96894      1.95623     13.62307        -0.199891     -0.138920     -1.359056
O       1.80375     13.53325      0.46532         0.296529      0.019844     -0.580668
O       1.80418     13.52212     13.45666         0.144644     -0.291883      1.258817
O      13.63150      1.87156      0.53341        -0.286889     -0.067777      0.156767
O      13.52560      1.83554     13.60352        -0.338109      0.425351     -0.047534
O      13.66548     13.57201      0.59202         0.026210     -0.094411     -0.234454
O      13.44826     13.35784     13.66443        -0.069532      0.559522     -0.176789
O       1.91180      1.71630      4.94267        -0.138521      0.703020     -0.704843
O       1.87637     13.68453      4.79783         0.295735     -0.328501     -0.712644
O      13.62458      1.92064      4.84041        -0.147954      0.154639      0.442925
O      13.36397     13.39303      4.84730         0.406725     -0.009372      0.631944
O       1.73840      1.88889      9.19544         0.108562     -0.197348      1.163018
O       1.82743     13.54041      9.26317         0.826868     -0.026417     -0.676628
O      13.48276      1.93243      9.27699         0.055633     -0.273936     -1.080249
O      13.46937     13.36252      9.14631        -0.141791      1.065481     -0.075772
O       1.85010      5.71087      0.53590         0.313802      0.146349      1.171822
O       1.98364      5.72365     13.54302        -0.152638      0.044247      0.227539
O      13.36955      5.88921      0.60059         0.352525     -0.262274      0.406816
O      13.60083      5.60299     13.48265        -0.009753      0.071955      1.005299
O       2.07271      5.72649      4.82836        -0.524046      0.128252      0.116951
O      13.52430      5.73318      4.87460        -0.023309      0.372331      0.537295
O       1.96319      5.68545      9.14665        -0.585476      0.520702     -0.274605
O      13.50721      5.77678      9.20978        -0.033626      0.243740      0.194677
O       1.97085      9.61451      0.46064        -0.010123      0.087236      0.165367
O       2.01846      9.49105     13.59615        -0.280008      0.285915     -0.340859
O      13.53910      9.46477      0.50948        -0.283221      0.285693      0.588000
O      13.62204      9.84238     13.55792        -0.346023     -0.450524     -0.245438
O       1.98207      9.55600      4.90142        -0.196620      0.486787     -0.995142
O      13.45263      9.66627      4.81638         0.202668      0.041460      1.518119
O       1.82969      9.69738      9.14639         0.251443     -0.084344     -0.851713
O      13.47084      9.63684      9.20706         0.020252     -0.279645     -0.147914
O       5.71028      2.07902      0.53503        -0.086702     -0.631365      1.055641
O       5.79879      1.90216     13.51851        -0.052782      0.010911      0.521596
O       5.94774     13.56309      0.47845        -0.636601     -0.382648      0.073029
O       5.84521     13.44297     13.59773         0.028960     -0.128382     -1.161837
O       5.69493      1.94033      4.97739         0.199081      0.230981     -0.441715
O       5.75248     13.78902      4.78572         0.088718     -0.557801     -1.058148
O       5.68598      1.74136      9.32683         0.526663      0.326091     -0.216490
O       5.77431     13.46737      9.28869        -0.127431      0.093014     -0.193775
O       5.79859      5.59575      0.53748         0.109460      0.377309     -0.286309
O       5.66503      5.74776     13.68149         0.215100      0.082557     -0.137925
O       5.80609      5.74273      5.00708         0.011184      0.395906     -1.242008
O       5.65818      5.85983      9.16357         0.457854     -0.272424      1.023234
O       5.80617      9.79732      0.51263        -0.114090     -0.452207     -0.371891
O       5.87535      9.71164     13.68902        -0.117894     -0.354727     -0.419026
O       5.64189      9.57543      4.82947         0.678170      0.401513      0.210079
O       5.73323      9.66366      9.20906         0.038140      0.329402      0.516002
O       9.70340      1.89298      0.64155         0.169535      0.077254     -0.769936
O       9.53847      1.77385     13.61961         0.059380      0.301894     -0.269690
O       9.49187     13.52225      0.52886         0.354622     -0.166572     -1.005454
O       9.68792     13.60740     13.67097         0.060923     -0.157750      0.252276
O       9.72209      1.91210      4.81243        -0.354666     -0.153554      0.227741
O       9.41300     13.56699      4.95841         0.632266     -0.091010     -0.582547
O       9.71021      2.03576      9.23031        -0.076565     -0.517595     -0.259908
O       9.70049     13.57354      9.21511        -0.001098     -0.145363     -1.424718
O       9.66230      5.58747      0.54737        -0.130877      0.732154      0.299425
O       9.70520      5.65014     13.45922        -0.424624      0.315404      1.220468
O       9.57152      5.83412      4.90492         0.043248      0.020579     -0.088588
O       9.55560      5.80537      9.41075         0.466800     -0.122680     -0.016347
O       9.62392      9.62296      0.52206         0.117972     -0.251686     -0.303906
O       9.61854      9.53014     13.50289        -0.077068      0.712108      0.351784
O       9.63710      9.57915      4.79260        -0.142747      0.004269      0.798491
O       9.82416      9.67604      9.32769        -0.413038     -0.301842     -1.840348
O       3.81756      1.87235      2.68808         0.739499      0.205391      0.473738
O       3.87739      1.90058     15.63611        -0.708999     -0.327295      0.432158
O       3.81568     13.76038      2.55431         0.329864     -0.594029      0.018719
O       3.77839     13.38631     15.49719         0.877739      0.295429      0.729096
O       0.10282      2.05969      2.71344        -1.889900      0.037895     -0.034223
O      15.41763      1.97495     15.57679         0.664134     -0.427498      0.864052
O       0.01465     13.43079      2.70656        -0.298365      0.071453      0.328579
O      15.45739     13.45912     15.70026        -0.444748      0.124103      0.060693
O       3.83297      1.87682      7.20953        -0.174816      0.085777     -0.396055
O       3.83416     13.58569      6.97318         0.432865      0.358852      0.193280
O      15.43781      1.89614      7.01347        -0.194187      0.353115      0.224258
O       0.09591     13.43712      6.98145        -1.864516     -0.067057      0.125742
O       3.77523      1.91592     11.43012        -0.252661     -0.429685      0.004377
O       3.76104     13.36031     11.44067         1.763798      0.560435      0.091938
O      15.41457      1.97964     11.52485         0.323854     -0.341417     -0.365087
O      15.46159     13.53777     11.17001        -0.966699      0.149983      1.221005
O       3.82835      5.97052      2.74374         0.679501     -0.907769     -0.352399
O       3.75189      5.66421     15.82960         2.060413      0.339475     -0.155563
O       0.01818      5.74328      2.73481        -0.917323     -0.070772      0.115116
O       0.00363      5.66124     15.65573        -0.855013      0.232597      0.393672
O       3.79062      5.76994      7.11389         0.740657      0.318157     -0.379122
O       0.02789      5.77340      6.99828        -0.354035     -0.055593      0.066499
O       3.78420      5.84254     11.36083         0.642252     -0.420736      0.259860
O       0.05210      5.80420     11.31637        -1.661028     -0.257128      0.321772
O       3.82414      9.64631      2.73123        -0.276310     -0.178679     -0.053109
O       3.83569      9.54459     15.67017         1.144553      0.523028      0.615885
O       0.04015      9.77740      2.67980        -0.542172     -0.430091     -0.042774
O       0.05989      9.67834     15.61997        -0.885939     -0.210072      0.428243
O       3.87233      9.65651      6.90754         0.447104      0.130152      0.703126
O       0.00922      9.74257      6.98313        -0.270300     -0.490960     -0.004756
O       3.75138      9.55406     11.31618         0.680353      0.475192      0.164781
O      15.40005      9.52596     11.36961         0.443133      0.467201     -0.198803
O       7.75186      2.00658      2.67340        -0.664446     -0.306475      0.363903
O       7.64380      1.87243     15.81435         0.415949      0.063055     -0.241286
O       7.77370     13.44146      2.65720        -1.727026      0.298733      0.424505
O       7.75361     13.49594     15.70099        -0.398437      0.238809      0.015012
O       7.77534      1.95800      7.01063        -0.664339     -0.144514      0.415080
O       7.64046     13.60336      7.01230         0.507740     -0.640353      0.541537
O       7.78311      1.80777     11.34190        -0.740165      0.516841      0.053651
O       7.75526     13.59828     11.28305        -0.372037     -0.382047      0.235799
O       7.65762      5.76754      2.78848         0.128584      0.136906     -0.301143
O       7.83486      5.60781     15.70791        -1.668005      0.766765     -0.132891
O       7.73322      5.78242      7.12862        -0.263633      0.175777      0.204849
O       7.63528      5.66671     11.36671        -0.382911      0.494580      0.436438
O       7.60136      9.66763      2.72540         0.789388      0.308954      0.075491
O       7.75389      9.64464     15.76050        -0.535228     -0.685224      0.029734
O       7.70171      9.59458      7.06165        -0.173111      0.378498     -0.310370
O       7.78912      9.62102     11.34360        -1.568603      0.203978      0.201817
O      11.59470      1.82410      2.77266         0.748682      0.005144     -0.339146
O      11.57425      1.85605     15.74935         0.042442      0.196032      0.154209
O      11.57643     13.57233      2.55684         0.178100     -0.142310      0.587500
O      11.56925     13.52852     15.94339         0.017913      0.064413     -0.519519
O      11.62439      1.91126      6.87094        -0.000713     -0.050380      0.636669
O      11.54180     13.35482      7.02103         0.063161      0.605427     -0.106835
O      11.58572      2.00942     11.38430        -0.178986     -0.423253      0.313787
O      11.60215     13.55791     11.43117         0.196912     -0.375647     -0.164712
O      11.56493      5.87273      2.79010        -0.363623      0.140440     -0.212021
O      11.61903      5.73032     15.52969        -0.294280      0.136546      0.646982
O      11.57606      5.78905      7.11505         0.132142     -0.057533     -0.369413
O      11.67423      5.82063     11.51523        -0.755465     -0.233971     -0.378665
O      11.50024      9.52440      2.69549         0.666282      0.178117     -0.230503
O      11.58609      9.75469     15.59280         0.162940     -1.121455      0.245472
O      11.59660      9.67417      6.97557        -0.126572     -0.138463      0.157143
O      11.60511      9.60866     11.44742         0.364651      0.388077      0.184322
O       2.06093      3.85746      2.75197        -0.383236      0.185535     -0.074798
O       1.94234      3.81007     15.74503        -0.165212     -0.519530      0.159625
O       1.74171      0.02360      2.56523         0.106439     -0.803910      0.500564
O       1.93508     15.41691     15.56207        -0.112420     -0.378271      0.607058
O      13.34448      3.82610      2.72761         0.700327      0.173117     -0.585706
O      13.49439      3.84220     15.93107        -0.055611      0.069532     -0.701683
O      13.60312      0.01792      2.65678        -0.021570     -0.572453      0.383720
O      13.46786     15.45233     15.73620         0.497219     -0.454496      0.070206
O       1.90907      3.85488      7.01136        -0.074343     -0.537726     -0.120090
O       1.84915     15.43752      7.05668         0.231320      0.135998      0.336408
O      13.53262      3.85670      7.12930         0.075191     -0.345765     -0.471739
O      13.57621     15.36232      6.91730        -0.533664      0.078510      0.316434
O       1.88284      3.84574     11.24293         0.064102     -0.414554      0.676489
O       1.89503     15.39498     11.46282         0.197248      1.220011     -0.221212
O      13.55108      3.86984     11.27110        -0.008795     -0.090167      0.487483
O      13.55508     15.46125     11.41276        -0.212179     -0.071292     -0.153260
O       1.82115      7.74060      2.75671         0.172419      0.131073     -0.334636
O       1.95907      7.59346     15.76197        -0.436155      0.790809     -0.120438
O      13.48698      7.78865      2.70047         0.602695     -1.796873      0.585481
O      13.57372      7.70092     15.76478        -0.334740     -0.015659     -0.739068
O       1.83753      7.75726      6.96091         0.473138     -0.492612      0.217799
O      13.54187      7.67681      7.07801         0.028837      0.618321     -0.127342
O       1.80214      7.66925     11.35863         0.491304      0.995791     -0.035155
O      13.49852      7.69315     11.42601         0.086830      0.284777     -0.020268
O       2.08537     11.64109      2.52968        -0.300145     -0.393105      0.474229
O       1.97494     11.55853     15.66948        -0.330619     -0.002759      0.066438
O      13.48811     11.52551      2.65225        -0.380607      0.207591      0.299742
O      13.43724     11.56957     15.81537         0.680978      0.118562      0.015100
O       2.04514     11.62648      6.82691        -0.019216     -0.807455      0.420531
O      13.60339     11.53093      7.09823        -0.771706      0.372181     -0.458006
O       1.82687     11.53530     11.41502         0.187200     -0.574435     -0.076768
O      13.66007     11.61746     11.13115        -0.747363     -0.611870      1.309156
O       5.80703      3.92972      2.73514        -0.725462     -0.517059      0.247751
O       5.78072      3.73960     15.72605        -0.071392      1.962052      0.064883
O       5.76381      0.05392      2.58835         0.761359     -0.477938      0.200191
O       5.72031     15.38031     15.75524         0.270998      0.053487     -0.278778
O       5.74953      3.88845      7.12295         0.167058      0.036367      0.182776
O       5.87300      0.04183      6.98837        -0.461484      0.029468      0.650610
O       5.67029      3.80248     11.42648         0.461170      0.567972     -0.300659
O       5.71705     15.42034     11.44659        -0.209693     -0.926833      0.063522
O       5.74958      7.73777      2.44409         0.479650     -0.559347      0.569399
O       5.76148      7.59512     15.87015         0.375690      0.335851     -0.401553
O       5.73860      7.77266      7.09755         0.488306      0.078996     -0.566832
O       5.67520      7.71814     11.37691         0.778682     -0.171081      0.368796
O       5.58666     11.64068      2.67674         0.595328      0.529517      0.022391
O       5.90612     11.56629     15.76831        -0.797706     -0.297540     -0.098501
O       5.69105     11.73644      7.01780         0.680127     -1.469487     -0.297898
O       5.75281     11.51130     11.41748         0.252905      0.562112      0.153265
O       9.65946      3.87369      2.75530         0.225989      0.031612     -0.000466
O       9.72087      3.74268     15.75891        -0.085403      1.031364     -0.064278
O       9.59533     15.40328      2.67224         0.127120      0.142795      0.386785
O       9.61924      0.03174     15.84038         0.153424     -1.034462      0.118043
O       9.61316      3.82540      7.09975         0.380178      0.539561     -0.207824
O       9.66360      0.00204      7.07583         0.240571     -0.241914      0.010626
O       9.68415      3.86607     11.46703        -0.152180     -0.716759      0.042146
O       9.78150      0.01996     11.38240        -0.120242     -0.292920     -0.244550
O       9.40331      7.71171      2.61838         0.439491     -0.563143      0.096249
O       9.59785      7.67514     15.63204         0.282199     -0.399129      0.282834
O       9.67820      7.67347      7.04074        -0.167956      0.833834      0.274995
O       9.58934      7.71837     11.52114         0.486235     -0.527731     -0.093315
O       9.61397     11.54909      2.70967         0.225122     -0.314602     -0.020162
O       9.62570     11.51251     15.71138         0.088807      0.593130     -0.132044
O       9.58073     11.47879      6.99205        -0.183526      1.016411      0.273081
O       9.70016     11.61892     11.41752        -0.070158      0.238580      0.087684
