  # total energy = -7836.41069190 
CRSYTAL
PRIMVEC
    15.6080000000000005    0.0000000000000000    0.0000000000000000
     0.0000000000000000   15.6080000000000005    0.0000000000000000
     0.0000000000000000    0.0000000000000000   16.6239999999999988
PRESSURE
3.78146 4.64034 1.9987 -0.144896 0.230893 0.360712
PRIMCOORD
320 1
Pb       4.30821      4.07996      4.30251        -2.187755     -1.588509     -1.482923
Pb       4.15591      3.65866      0.03138        -1.712212      1.738751      0.060921
Pb       4.32128      0.09964      4.22261        -1.712714     -0.384778     -0.707007
Pb       3.95469      0.19767      0.48090        -0.911876     -1.250173     -0.235361
Pb       0.46740      3.95350      4.21517        -1.356153      0.905135      0.904939
Pb       0.07621      3.89838      0.28229        -0.184855      0.000635     -0.846548
Pb      15.41670      0.07508      4.19201        -0.545457     -1.116924      0.290292
Pb       0.05755      0.09319      0.07755         0.365962     -1.142504     -0.231703
Pb       4.03497      3.70266      8.19180        -1.039979     -0.062689      0.860070
Pb       3.96397     15.60659      8.87208        -1.376644      0.805503     -1.700451
Pb      15.51538      3.72511      8.28155        -0.003486      0.593755     -0.563091
Pb      15.13872     15.47505      8.03046         0.635228     -0.045987      0.454001
Pb       3.63900      3.83698     12.26334         1.559962      0.212599     -0.571564
Pb       3.78804      0.47604     12.40400        -1.405083     -1.259929     -0.177188
Pb       0.28255      3.89400     12.49377        -0.298252     -0.900275      0.044699
Pb      15.15627     15.30882     11.88172         1.538887      0.369586      0.772211
Pb       3.95653      8.29931      4.18213        -1.812350     -1.797561     -0.066207
Pb       3.99465      7.99395      0.06703        -0.007055     -0.722415     -0.521683
Pb       0.22379      7.63107      4.16446        -0.234583      0.200278      0.598282
Pb       0.16389      8.28285     16.50574        -1.211646     -2.842257      0.243628
Pb       4.22145      7.90667      8.86965        -0.942930     -0.126461     -0.900432
Pb       0.02564      7.81000      8.67144         0.487293     -0.446562     -1.240596
Pb       3.78050      7.42673     12.89089         0.422119      1.279265     -1.343312
Pb       0.00400      7.51376     12.59415         0.828719      0.767744     -0.166979
Pb       3.61895     12.11937      4.80925         0.647287     -1.215684     -1.575655
Pb       3.33389     11.95685      0.43068         2.682423     -0.751433     -0.809536
Pb       0.26023     11.62124      4.18605        -2.077618     -0.099299      1.685701
Pb      15.37269     11.65914     16.31988         1.255524      1.493729      0.928387
Pb       3.70507     11.50307      8.43246        -0.469656      0.192707     -0.233228
Pb      15.37917     11.57800      8.21015         0.446825      0.037439     -0.297647
Pb       4.49031     11.86150     12.56651        -3.392183      0.054726     -0.034363
Pb      15.16176     11.84008     12.49507         1.692582      0.080816     -0.843745
Pb       8.18674      3.97868      3.56688        -3.371600      0.543091      2.732690
Pb       7.80374      3.98342     16.42004         0.099003     -0.235325     -0.011247
Pb       8.48672     15.58962      4.13845        -3.260647     -0.913508     -0.776933
Pb       7.60052     15.23532     16.56579         0.054399      1.668628      0.417524
Pb       7.46524      4.04921      7.94871        -0.060866      0.715648      0.720534
Pb       7.65023      0.04815      8.41550         0.849079     -0.750247     -0.876155
Pb       7.93812      3.90985     12.44665        -0.352846      0.426678     -0.465400
Pb       8.23244      0.31520     12.85162        -1.057185     -1.102679     -1.414037
Pb       7.48482      7.88566      4.05978         1.423363     -0.729864      0.683669
Pb       7.59132      7.92012      0.29297        -1.072721     -0.681970     -1.452975
Pb       7.69421      8.10905      8.30676         0.075860     -1.735060     -0.110927
Pb       7.65343      8.05468     12.59365         0.630137     -1.134943     -0.070172
Pb       7.65427     11.86409      4.03655        -0.020319     -0.248222     -0.330601
Pb       8.03094     12.14959     16.61830        -2.102278     -1.839475      0.487936
Pb       7.58995     11.37328      7.97290         0.477218      1.263591      1.126509
Pb       7.97118     11.40753     12.83750         0.369028      0.760217     -0.842852
Pb      11.25430      3.69443      3.88448         3.132303      0.653609      1.459301
Pb      11.88988      3.70328     16.54288        -0.549831      0.737000     -0.563191
Pb      11.70599     15.25619      4.38055         1.050342      1.101705     -0.381875
Pb      12.20718     15.59061      0.38677        -0.840680      0.941833     -0.491657
Pb      11.54996      4.08863      8.65877         0.579879      0.299790     -0.632425
Pb      11.59497      0.38580      8.12603         0.407515     -2.149593      0.340488
Pb      11.53004      3.32579     12.46558         0.183085      1.752208      0.109743
Pb      11.46108     15.13178     12.25803         1.131649      2.239526     -0.731610
Pb      11.06678      7.50101      4.22966         1.428118      0.484523      0.554488
Pb      12.04472      7.92383      0.02299        -0.001786     -0.603964     -0.775516
Pb      12.03574      7.51701      8.97689        -0.735319     -0.364901     -1.972935
Pb      11.53530      7.65323     12.74519         0.167610      0.196782      0.119648
Pb      11.30238     11.42784      3.89988         0.589513     -0.418274      0.783831
Pb      11.94821     11.39951     16.19423        -1.141253      0.693424      1.427783
Pb      11.12491     11.68015      8.28699         0.775422     -1.026672     -0.968498
Pb      11.70353     11.54401     12.33838        -0.242462     -0.485560     -0.269693
Ti       1.82306      1.91091      2.43788         2.719057     -0.817659     -0.979546
Ti       1.95870      1.87553     14.78797        -0.246826      1.694567     -1.251628
Ti       1.84854     13.65039      2.55506         0.210192      1.403654     -2.378496
Ti       1.75569     13.68418     14.54364         0.320880      0.917458     -2.770623
Ti      13.64562      1.98423      2.22925        -0.893383     -0.946020      0.368167
Ti      13.73185      1.84033     14.35055        -0.216776      1.309981      2.349262
Ti      13.54776     13.31331      2.10536         2.513793      4.346218      0.039385
Ti      13.42748     13.72463     14.68126         2.500496      1.090229     -0.302175
Ti       1.94911      1.91741      6.12331         1.107419      0.489552      2.268645
Ti       1.73313     13.78980      6.54723         0.668632      0.338217      0.961960
Ti      13.52841      2.12735      6.14183         0.617929     -0.561400      0.022698
Ti      13.42940     13.36987      6.11620        -0.245856     -0.143249      3.423669
Ti       1.72990      1.81629     10.26736         0.628054     -0.447777      0.150394
Ti       2.02281     13.48929     10.38198        -1.881133      1.052773      0.833136
Ti      13.44824      1.83746     10.37712         0.177866     -0.213801      1.213328
Ti      13.35488     13.38973     10.05418         2.745391      0.643341     -0.270376
Ti       2.10468      5.89859      2.26732        -0.517981      0.174600     -0.397516
Ti       2.00413      5.70092     14.86860         0.611699      1.216601      0.376352
Ti      13.76059      5.94736      2.16056         0.983484     -0.509224      0.011120
Ti      13.85361      5.70617     14.68849        -2.427119      0.441485      0.219053
Ti       1.99515      5.84246      6.44951        -0.131858     -0.434198     -1.024337
Ti      13.73796      5.72353      6.11756        -0.616280      1.769300      2.458710
Ti       1.95188      5.85880     10.52646         0.891195     -0.219653      1.897286
Ti      13.73477      5.51906     10.82021        -0.958891      2.990668     -1.275882
Ti       1.85073      9.74675      1.98036         2.077613      1.014587      3.299184
Ti       1.94336      9.72861     14.50365         1.409703      3.010592     -1.869907
Ti      13.81930      9.65143      2.39887         0.380535     -0.899465     -0.078965
Ti      13.79161      9.68642     14.34245        -0.980929     -0.717289     -0.828049
Ti       1.84328      9.63257      6.25172        -0.701379     -0.578431      2.834911
Ti      13.59357      9.53597      6.25391        -0.346772     -0.133591     -0.011827
Ti       1.93787      9.64039     10.59317         0.859112      0.599887      1.811282
Ti      13.75227      9.47267     10.50146         0.297056      1.992994      0.650753
Ti       5.91763      2.02442      2.09372        -0.712229     -1.498038      0.889395
Ti       5.82711      2.03641     14.34245        -0.730444     -0.819914      2.571864
Ti       5.90227     13.66234      2.23398        -1.174796      0.141161     -0.673087
Ti       5.52161     14.03045     14.28373        -0.656086     -0.632826      4.164504
Ti       5.88325      1.82300      6.21657        -1.827686     -0.427731      1.031739
Ti       5.71784     13.70275      6.29168         0.287695     -0.118236     -0.352885
Ti       6.13356      1.92211     10.52473        -2.625812      2.666133     -0.778088
Ti       5.92067     13.86582     10.19799        -0.796978     -3.116789      2.125535
Ti       5.83060      5.99562      2.11747        -0.616248     -1.125814     -1.177963
Ti       5.84942      5.72877     14.53692         0.133676      1.480692      1.563575
Ti       5.67917      5.88305      5.99390         3.235329      2.226752      0.925882
Ti       5.85714      5.93609     10.53586        -1.581016     -1.713241      1.328033
Ti       5.78959      9.85200      2.22253        -0.303730      2.571341     -1.428016
Ti       5.72025      9.89852     14.63696        -0.653288     -0.751454      0.944957
Ti       5.72675      9.75008      6.12605        -0.826711     -1.616090      1.861761
Ti       5.85033      9.92539     10.64470        -1.329967     -1.176614     -1.112570
Ti       9.75857      1.92478      1.87998         1.006148     -2.758737     -1.712756
Ti       9.87171      1.87424     14.68933         0.727484      0.463408      1.015326
Ti       9.99655     13.64763      1.83434        -3.661366      0.925192      0.856062
Ti       9.75676     13.57094     14.37140         2.169879      0.553103      2.477106
Ti       9.63197      1.88802      6.20447         0.878849      0.512595      1.005376
Ti       9.51051     13.48565      6.16458         0.799480     -0.524820      0.994662
Ti       9.61176      1.95816     10.10661         2.495965     -1.174398      2.458586
Ti       9.52217     13.42176     10.40788        -0.592285      2.452749     -1.403825
Ti       9.86281      6.04041      1.81311        -0.577253     -0.932162     -0.787257
Ti       9.77513      5.81816     14.45877         0.881579      0.186199      2.623359
Ti       9.73839      5.64629      6.46112         0.324356      1.787991     -0.635256
Ti       9.65028      5.84186     10.63538        -0.468338     -0.337491     -0.672224
Ti       9.60644      9.77800      1.78697         0.845378     -3.167025      2.630575
Ti       9.60425      9.62244     14.96042         0.882898     -0.827275     -4.835529
Ti       9.66197      9.49913      6.10994         1.761805     -0.413879      1.990228
Ti       9.75063      9.59193     10.50706        -0.301441      0.798447     -0.464874
O       2.06533      2.02124      0.55634        -0.457321      0.049305     -0.440959
O       2.12485      2.15243     12.95181        -1.602714     -0.691407     -0.528619
O       2.07821     13.59865      0.58631        -1.883189      1.579986      0.305982
O       1.81900     13.68590     12.58298        -0.750429      0.091729      1.741662
O      13.97538      1.62135      0.37434        -0.957793      0.935347      1.201084
O      13.53700      1.95632     12.62007        -0.020394     -0.302452     -1.096211
O      13.61928     13.72266      0.20467        -0.234660     -0.983923      1.675415
O      13.50849     13.66133     12.87526         0.131386     -0.307768     -1.179925
O       2.10935      2.08084      4.35780        -0.441972     -0.475423     -0.210440
O       1.93967     13.66660      4.41569        -0.036250     -0.066818      2.720801
O      13.62510      1.91735      4.40855        -0.736456      0.286752     -1.522425
O      13.47736     13.70871      4.42605         0.092904     -1.052273     -2.011129
O       1.72116      1.90296      8.53349         0.109761     -0.013186     -0.736309
O       1.95750     13.55633      8.44247        -1.013493      0.443405     -0.742905
O      13.22147      2.13715      8.65648         1.053833      0.086009     -1.440234
O      13.41388     13.47687      8.30006        -0.342538      0.085311      0.443085
O       2.02987      6.19621      0.49153        -0.184031     -0.874917     -1.215940
O       2.01501      6.03867     12.90277        -1.282829     -2.100677      1.604010
O      13.86465      6.08204      0.38429        -0.615434     -0.817153     -0.031304
O      13.77612      5.75233     12.83840         0.004738     -0.043197      0.707004
O       1.87702      5.85111      4.55958         0.396806      0.327366      0.535594
O      13.84536      5.96679      4.43923        -0.569346     -0.376126     -2.428012
O       2.01609      5.72751      8.86597        -0.304258      0.325668     -4.036408
O      13.60017      5.62266      8.89287        -0.540195      0.483851      0.499456
O       1.60190     10.04561      0.22218         0.900666     -0.187672     -0.041318
O       1.94735      9.74449     12.72563         0.618707      0.100145      0.264807
O      14.03505      9.84604      0.33608        -1.477038     -0.666199      0.982299
O      13.66918      9.67748     12.46228        -0.312533      0.730718      3.133750
O       1.94842      9.56280      4.55765         0.261710      0.590330     -1.279405
O      13.56641      9.68640      4.35550        -0.571817     -0.319498     -0.544166
O       1.99054      9.57628      8.83325        -0.743481     -0.252345     -2.079564
O      13.83763      9.55635      8.70451        -0.391696     -0.395412     -0.704478
O       5.49780      1.95800      0.30559         1.738907     -0.473114      0.241220
O       5.75426      1.95912     12.58383         0.692313     -0.108428     -0.626351
O       6.04551     13.50024      0.22395        -0.519417      0.843840      0.354628
O       5.78400     13.78712     12.60982         0.045214      0.437217     -1.116498
O       5.85996      1.75598      4.48785         1.185910      0.920796     -0.489114
O       5.87771     13.83541      4.38754        -0.047421     -0.964158      0.314643
O       5.92488      1.82864      8.64171         0.561895     -0.088386     -0.019328
O       5.88082     13.80166      8.41195         0.397621     -0.283497      0.182548
O       5.80086      5.91929      0.20764         0.476864     -0.265448      1.323207
O       5.70550      5.26621     12.86916         0.248296      1.705501     -0.634485
O       5.84367      5.93513      4.14570         0.159292     -0.069440      0.823811
O       5.64867      5.87549      8.82145         0.369973     -0.321797     -1.930644
O       5.90893      9.56789      0.38101         0.044202      0.904840     -0.761498
O       5.54984      9.79287     12.66873         1.571797     -0.235430      1.050042
O       5.86104      9.58497      4.29610         0.020141      1.234188      0.256055
O       5.74805      9.79026      8.52166         0.553800     -0.355314      0.594621
O       9.91634      1.89119      0.07061        -0.854647      0.022716      0.613233
O       9.65445      2.05627     12.67356         0.030002     -0.860938      1.810274
O       9.80867     13.72668      0.07663         0.302689     -0.160139      0.064913
O       9.96568     13.44551     12.59151        -1.443858     -0.761099     -0.676338
O       9.86682      1.73779      4.28013         0.010334      1.720223      0.813214
O       9.66798     13.40744      4.25295         0.318930      0.026947      0.992864
O       9.74184      1.86469      8.37133        -0.559288     -0.152124     -1.463843
O       9.58456     13.51901      8.57153        -0.153582      0.034670     -0.044274
O       9.97874      5.65174      0.03739        -1.307284      1.114248      2.297234
O       9.51378      6.03452     12.72799         0.545055     -1.870572     -0.708270
O       9.81603      5.60881      4.55915        -0.438918     -0.761852     -0.634643
O       9.78249      5.85836      8.84485        -0.607589      0.391612     -1.258645
O       9.74845      9.29060      0.01975        -0.035078     -0.034353      3.263544
O       9.57212      9.81011     12.64349         0.282972      0.205567     -0.147542
O       9.68000      9.79704      4.29145         0.271248     -0.370407      0.788533
O       9.52385      9.59389      8.43487         0.128097      0.357156      2.437696
O       4.12180      1.98268      2.70179        -0.400803      0.674799     -1.319671
O       3.90923      1.95512     14.68996         1.253016      0.294123      0.680333
O       4.03899     13.51733      2.48907        -0.920661      0.465418     -0.437395
O       3.71735     13.97137     14.79683         1.991431     -0.764815     -0.855951
O      15.56312      1.83440      2.62970         0.821962      0.576308     -0.927911
O      15.51635      2.19812     14.81798         1.813304     -0.480865      0.065758
O      15.58795     13.87251      2.64877        -0.065534     -1.164520     -0.853285
O      15.35706     13.65247     15.06733         1.914818      0.748636     -1.324981
O       3.88376      1.77428      6.49724         0.951116     -0.237434      0.111559
O       3.81508     13.52319      6.68452        -0.244067      0.091455     -1.242861
O       0.04544      2.16596      6.14737        -0.721072      0.016918      1.333220
O      15.43720     13.59645      6.61219         0.557417     -0.167483     -0.481969
O       3.70604      1.84754     10.47326         0.273251      0.024678      0.724941
O       3.80248     13.60466     10.23540         1.863654     -0.013634      0.702580
O      15.36433      1.69396     10.46879         0.222495      0.279723      0.328479
O      15.36321     13.82505     10.21592        -0.932741     -0.512181      0.476139
O       3.91958      5.81716      2.45641         1.884520      0.292944     -0.276044
O       3.90963      6.00125     14.95364        -0.361556     -0.224141     -0.447607
O       0.10606      5.87536      2.42686        -0.791928     -0.868346      0.063330
O       0.06698      5.90100     14.95547         0.925863     -0.348645     -0.087636
O       3.98708      6.08588      6.39941        -2.413346     -0.301770      0.325127
O       0.01705      5.33102      6.52051         0.680881      0.800025      0.385274
O       3.82707      5.87715     10.89013         0.049763     -0.096044      0.280095
O      15.56036      5.89536     10.81779         0.479990     -0.263695      0.331515
O       3.86507      9.99808      2.28173         0.126278     -0.738526     -0.026351
O       3.75927      9.87556     15.08229         3.100123      0.156509     -0.554470
O       0.23296      9.68283      2.79477        -3.258015      0.349470     -1.271910
O       0.06648      9.92746     14.56584        -2.037252      0.104529      0.636613
O       3.71185      9.67980      6.42112         2.992994     -0.575664     -0.062176
O      15.48540      9.82094      6.32782        -0.258162     -0.477265      0.729696
O       3.87709      9.58731     10.56881         1.081637      0.913312      0.277575
O       0.05790      9.62898     10.74907        -2.234851     -0.574137     -0.204302
O       7.97145      1.67087      2.01919        -0.971479      0.640465      0.791787
O       7.77736      1.68102     14.85550         0.826248      1.711997     -0.718296
O       7.88686     13.67672      2.13189         0.920380     -0.436592      0.330694
O       8.02261     13.54544     14.84909        -1.303488      0.686619     -1.288078
O       7.75775      2.00690      6.36615        -0.083430     -0.681244      0.258786
O       7.62767     13.67603      6.32203         2.201135     -0.818628      0.459089
O       7.93486      1.76921     10.75799        -3.379123      0.133646      0.159145
O       7.65090     13.81950     10.62077         1.148468     -0.268230     -0.168205
O       7.75498      5.86666      2.28420         1.282056     -0.358204     -0.605179
O       7.85221      5.59131     14.78840         0.007599      0.061955     -0.086733
O       7.65385      5.90972      6.37375         0.187434     -1.843200      1.064398
O       7.62590      5.92409     10.90322         2.371027     -0.642356      0.254952
O       7.77325      9.82333      2.60249        -0.678666     -0.434383     -1.609321
O       7.79331      9.63015     14.99558        -1.763749      0.695852     -1.070545
O       7.79214      9.59352      6.55981        -1.788475      0.446458     -1.331568
O       7.69954      9.54080     10.67765        -0.492275      0.686117      0.036972
O      11.71290      1.69630      2.09121         0.442253      1.110605      0.551971
O      11.74174      1.84837     14.93493         0.980475      0.524757     -0.779994
O      11.70515     13.25136      2.18756         0.815778     -0.048874      0.514747
O      11.67129     13.34782     14.77299        -0.762596      0.470567      0.293910
O      11.71070      1.87603      6.38213        -2.017664      1.015822     -0.394215
O      11.47916     13.50480      6.33524        -0.156671     -0.315902     -0.224083
O      11.45191      2.08214     10.57566         1.418579     -0.042084     -0.096634
O      11.65486     13.53733     10.58539        -2.350864     -1.229315      0.287220
O      11.65790      5.90097      2.44108        -0.208234      0.494831     -0.667800
O      11.78974      5.87672     15.00480         0.534709      0.595238     -1.302559
O      11.62842      5.92433      6.48325         0.004271     -1.002307      0.331986
O      11.45240      5.54280     10.83930         1.836843      0.567486      0.322568
O      11.43627      9.33851      2.07342         1.363760      1.303039      0.602695
O      11.71467      9.58213     14.88382         1.775731     -0.157120     -0.609647
O      11.53847      9.68433      6.67368         0.462612     -0.067073     -1.302977
O      11.59754      9.90141     10.56759        -0.242161     -0.537045     -0.080616
O       2.14647      4.02604      2.62966        -0.869159     -1.046429     -1.178718
O       2.08802      3.92210     15.06302        -0.621360      0.917679      0.171004
O       2.10176      0.01782      2.46784        -0.364940      1.207944      0.103722
O       2.01350      0.15977     14.89116        -1.485842     -1.821714      0.546373
O      13.46704      3.79779      2.12149         0.814678      0.796329      0.248883
O      13.71623      3.94288     15.12728         0.137135     -0.431587     -0.409374
O      13.54673     15.41747      2.50880        -0.575436      0.276505     -0.642499
O      13.73290      0.13287     14.74729        -0.400257     -2.790828      0.314109
O       2.38591      3.83166      6.45208        -1.126741      0.507392      0.274682
O       1.64278      0.03367      6.44810         0.278423     -1.348293      0.091377
O      13.51917      3.95591      6.53355        -0.495252     -1.709052      0.020493
O      13.44386     15.59255      6.44242         0.523480      0.167948     -0.031040
O       1.87017      3.79352     10.61760        -0.999312      0.078680      1.208296
O       1.92484     15.51323     10.69970        -0.181796      1.077581     -0.405526
O      13.79982      3.84453     10.90558        -0.255041     -3.478212     -0.168968
O      13.08891      0.00009     10.43979         1.579822     -0.440607      0.063414
O       2.14043      8.03395      2.62908        -0.308638     -1.797968     -1.636968
O       1.97390      8.02505     14.86092        -0.203670     -2.847570      0.525075
O      14.11638      7.81914      2.24322        -1.613453      0.960231      0.482955
O      13.84172      7.92427     14.72222        -0.080517     -0.471533      0.345942
O       1.63861      7.59290      6.71514        -0.130004      1.200215      0.071599
O      13.84845      7.68840      6.60514        -0.335629      0.275695      0.096214
O       1.88567      7.70108     10.98204        -0.149813      0.686961     -0.962108
O      13.39506      7.66246     10.87132         0.401898      0.301471     -0.601166
O       1.77579     11.70177      2.69105         1.650683     -0.399943     -2.177457
O       1.87898     11.96723     14.73606         0.021458     -1.713233      0.796391
O      13.89042     11.63881      2.43863        -0.007036     -1.789004     -0.019814
O      13.65500     11.68019     14.73431        -0.056481     -0.842387     -0.633865
O       1.88740     11.47096      6.63718        -0.151368      1.799799     -0.327315
O      13.60615     11.57689      6.53930        -0.487337     -0.138884     -0.554020
O       1.80406     11.73071     10.55061         0.114788     -1.228236      0.084173
O      13.64234     11.58698     10.64307        -0.081977      0.714041     -0.172820
O       6.19809      3.83099      2.35450        -0.976188      0.778014     -0.361259
O       5.79051      3.82332     14.94171         0.780859     -0.137809      0.564251
O       5.72535      0.07350      2.25418         0.703176     -1.128038     -0.308738
O       5.90969      0.16395     14.79388        -0.468074     -1.856728     -0.450726
O       5.50127      3.95947      6.46060         1.842114     -0.982857     -0.200481
O       5.79652     15.45409      6.44789         0.190525      3.069901      0.424385
O       5.66981      3.79321     10.66729         1.286536     -1.407788     -0.253501
O       5.64510     15.60534     10.60059         0.267312      1.151851     -0.062229
O       5.77160      7.88970      2.18721         0.382689     -0.893234      0.830954
O       5.96859      7.74446     14.70134        -0.531574      0.370930     -0.153288
O       5.94907      7.76773      6.29982        -0.687218      1.253344      0.065049
O       5.76682      7.76485     10.71280        -0.085390      1.221372      0.282380
O       5.90172     11.82481      2.47606         0.656059     -2.066513     -0.116578
O       6.08005     11.70278     14.48412        -0.997619     -0.400581      0.451069
O       5.66156     11.57345      6.26791         1.118048      0.616469      0.382448
O       5.71554     11.77808     10.68710         0.908342     -0.305601     -0.661524
O       9.83651      3.78134      2.17999         0.248484      1.246209     -1.491661
O      10.05631      3.78095     14.64878        -1.364125      0.502043      0.115017
O       9.89377     15.44493      2.40452         0.916868     -0.413605     -1.282461
O      10.03226     15.48246     14.47542        -1.160437     -0.392087     -0.326562
O       9.42479      3.77095      6.83652         1.873032      0.667422     -1.500553
O       9.76657     15.60314      6.46281        -0.971852     -0.331041     -0.705338
O       9.58055      3.75649     10.59742        -1.059866      1.827875      0.244006
O       9.67497     15.59946     10.57840         0.521347     -0.538020      0.288675
O       9.34516      7.77535      2.29546         1.466238     -1.047211     -0.480197
O       9.79368      7.76716     14.47809        -0.199081     -0.672610      0.583470
O       9.62221      7.56125      6.35490        -0.242229      2.136265     -0.410189
O       9.78906      7.82760     11.04037         0.178370     -0.608473     -1.504036
O       9.65051     11.47901      1.96589         0.870999      3.675412      0.429758
O       9.93437     11.43471     14.80646        -0.953959      2.177653     -0.252515
O       9.46354     11.54066      6.49554         0.556981      1.593643     -0.513982
O       9.37168     11.65710     10.52968         0.728378     -1.146790      0.401902
