  # total energy = -7826.21962339 
CRSYTAL
PRIMVEC
    15.6080000000000005    0.0000000000000000    0.0000000000000000
     0.0000000000000000   15.6080000000000005    0.0000000000000000
     0.0000000000000000    0.0000000000000000   16.6239999999999988
PRESSURE
5.63429 5.33018 0.004428 0.165571 -0.156717 3.8e-05
PRIMCOORD
320 1
Pb       4.31598      4.05005      4.28343        -0.115012      1.112979      0.754577
Pb       4.10709      3.81694      0.11380         0.260164      0.146327     -0.942812
Pb       4.32542      0.14615      4.31914        -0.798762      0.072979      0.719391
Pb       3.81632      0.07758      0.58864         0.863201      1.609314     -3.622362
Pb       0.50272      4.07844      4.29888        -1.472031     -0.897956     -0.803597
Pb       0.09664      3.92445      0.42391        -0.633502     -1.169881     -0.945414
Pb      15.27568     15.59487      4.31916         1.175606      0.613939      0.863771
Pb       0.19019      0.01532      0.12416        -0.253601     -0.230189     -1.123621
Pb       3.98560      3.66918      8.25224        -0.320691      0.662922     -0.947522
Pb       3.92168      0.04011      8.89571        -0.319932     -0.773364     -1.774101
Pb      15.42248      3.81173      8.17673         0.118052      0.268352      0.029158
Pb      14.99315     15.42478      7.91993         0.757073      0.915799      0.197977
Pb       3.74793      3.88367     12.26805         0.345406     -0.102596      1.445662
Pb       3.64902      0.48099     12.44724         3.414614     -2.545945      0.487330
Pb       0.26502      3.78217     12.68588         0.559915      0.712672     -0.811152
Pb      15.18960     15.34067     11.92775         0.845311     -0.353068      0.725411
Pb       3.82608      8.25520      4.19753         1.017992     -1.272255      1.563526
Pb       3.91270      8.00804      0.12597        -1.098479      0.380756     -0.396201
Pb       0.23931      7.64499      4.22695        -1.549546      0.206611     -0.661769
Pb       0.18037      8.16523     16.57743        -0.143075      0.507114      0.582401
Pb       4.17907      7.84176      9.02403        -0.859461      0.775648     -3.244185
Pb       0.06771      7.73949      8.72288        -0.305534     -0.534357     -0.409992
Pb       3.75093      7.37428     13.01027        -0.105956      1.143772     -1.168776
Pb       0.11090      7.40790     12.77693        -0.530606      0.201535     -0.897641
Pb       3.56216     12.15656      4.92553         0.329525     -1.137099     -1.095116
Pb       3.28862     12.07075      0.46017         1.199541     -2.775727     -2.204294
Pb       0.11377     11.63479      4.41564         0.158152     -0.005509      0.302736
Pb      15.41947     11.83931     16.34516         0.464350     -1.299734      1.137217
Pb       3.57911     11.50600      8.60631         2.018357      0.964723     -0.873575
Pb      15.29599     11.47860      8.20227         1.123994     -0.117689     -0.264468
Pb       4.25433     11.86590     12.74885        -1.092266     -0.253622     -1.726170
Pb      15.13218     11.92581     12.44035         1.067513     -0.681815      0.063901
Pb       7.92568      4.00882      3.68000         0.614497      0.333892      1.863196
Pb       7.77814      3.89690     16.46403        -0.259842     -0.815858      0.085025
Pb       8.39541     15.57015      4.11418        -0.912541      0.334302     -0.105861
Pb       7.58586     15.36837     16.59045         0.713624      0.456450     -0.134583
Pb       7.51287      4.02155      8.16157         1.042122      0.817161     -0.080968
Pb       7.65818      0.01030      8.39157         0.378887      0.303060      0.017627
Pb       7.98750      3.94181     12.52084        -0.391106     -0.132405     -0.531522
Pb       8.03977      0.16573     12.99506        -0.812381     -0.431186     -1.203018
Pb       7.54803      7.87172      4.05462         0.049180     -1.176771      0.494504
Pb       7.47099      7.90516      0.26723         1.861584      0.050347     -1.244306
Pb       7.75485      8.02162      8.34911         0.524316     -0.047388     -0.790389
Pb       7.57136      7.87478     12.77688         0.953495      1.356486     -1.576744
Pb       7.62936     11.90565      4.09041        -0.330548      0.067396     -0.259853
Pb       7.89329     11.91380      0.03946         0.104759     -0.562945     -0.107279
Pb       7.60151     11.46262      8.14850         0.368794      0.484990      0.994335
Pb       8.08151     11.55859     12.94020        -0.245295      0.362010     -1.266438
Pb      11.55533      3.67316      3.90507        -0.463479      0.675599      0.090621
Pb      12.01531      3.77883     16.56422        -1.131919     -1.099387      1.053994
Pb      11.86247     15.11641      4.42949        -0.292864      1.051430     -0.530660
Pb      12.39358     15.59619      0.49947        -1.348416     -0.995527     -1.285162
Pb      11.60472      4.15584      8.64810        -0.536910     -0.768075      0.074094
Pb      11.62282      0.36946      8.11434        -0.452752     -0.302061     -0.041795
Pb      11.61571      3.38489     12.66423         0.167071      0.897265     -1.344227
Pb      11.49246     15.07871     12.09980         1.286628      1.023017      0.660944
Pb      11.12305      7.45560      4.26788         2.151028      0.818466     -0.452104
Pb      12.20130      7.85936      0.14524        -0.980023     -0.464573     -1.526115
Pb      12.08064      7.45814      9.04254        -1.227745      0.970685     -0.797014
Pb      11.47855      7.58373     12.85114         0.880446      0.737973     -1.954548
Pb      11.37003     11.39725      4.03187         0.783218      1.816109      0.502596
Pb      11.90160     11.47848     16.33024         0.074621     -0.037155      0.570536
Pb      11.06090     11.53196      8.30589         1.986893     -1.193856     -0.167831
Pb      11.54313     11.50058     12.23225         0.267721     -0.202246     -0.450039
Ti       2.03364      2.22098      2.00901        -0.315373     -2.442513      1.184293
Ti       1.99942      1.93279     14.53807         2.431368     -0.438493      0.336994
Ti       1.86015     13.90598      2.17403        -2.936287     -0.250007      2.364247
Ti       2.03841     13.68778     14.42902        -3.945720      0.810512     -0.059318
Ti      13.62030      1.94489      2.37905         0.796511      0.694227     -0.264214
Ti      13.98212      1.80060     14.23478        -2.677153     -3.658415      0.609862
Ti      13.78379     13.26556      2.49578        -1.141552      0.158428     -2.726578
Ti      13.80267     13.65332     14.66309        -2.429093      1.191478      0.418699
Ti       2.07113      1.81306      6.44605         0.566597      1.014736     -1.902934
Ti       1.78463     13.92087      6.45194        -0.105200     -2.099033     -0.405437
Ti      13.52926      2.36224      6.25143         0.624617     -1.275894     -0.603381
Ti      13.54114     13.17828      6.16737        -1.126890      1.123490      0.909946
Ti       1.66160      1.71879     10.33912        -0.289100      0.418170     -0.648400
Ti       1.82545     13.50958     10.26913         0.610613     -0.409291     -0.301695
Ti      13.52254      1.88446     10.23105         0.130765     -0.142780     -0.156429
Ti      13.61313     13.43865      9.94331        -0.502036     -0.259801      1.011728
Ti       2.10111      5.87854      1.85422         0.705781      0.220379      1.879253
Ti       1.85981      5.83262     14.76315         2.272993     -1.107415     -0.761870
Ti      13.73556      5.61354      1.81532        -1.004821      1.407353      2.166620
Ti      13.66062      5.49437     14.39364         0.458352      2.486266      0.297042
Ti       1.80092      5.86117      6.17061         2.507861     -0.202447      0.540745
Ti      13.24764      5.99165      6.10247         2.405525     -0.399335     -1.695490
Ti       1.90127      5.56607     10.12067         0.135571      0.760972      1.026217
Ti      13.75684      5.58001     10.62553        -0.965145      0.531882     -1.215329
Ti       1.87486      9.94315      2.44960        -2.020144     -0.405586     -3.540909
Ti       1.93220      9.95155     14.07543         0.544390     -0.052556      3.248883
Ti      13.56348      9.35525      2.21012         2.666493      2.447493      1.971066
Ti      13.73570      9.52182     14.27430        -0.884876     -0.000927      1.415501
Ti       1.78067      9.57572      6.45973         1.886311      0.877362      0.222671
Ti      13.35259      9.56296      6.12721         1.147080     -1.079856     -1.354490
Ti       2.04608      9.67487     10.44054         0.442215      0.108617     -0.590568
Ti      13.80148      9.71598     10.24375        -1.734941     -0.365423     -0.001307
Ti       5.95596      1.91885      2.19659         0.698940      2.392696     -1.303331
Ti       6.05434      2.15838     14.47304        -3.518152     -1.711533     -1.902544
Ti       5.69006     13.73076      2.01586         2.802174     -1.030728      0.338895
Ti       5.87810     13.75315     14.30648        -2.916886      1.215979      2.390491
Ti       6.18340      1.99068      6.15183        -1.428951      0.793125     -0.516937
Ti       5.93892     13.80699      6.25049        -0.693781      0.647950      0.937894
Ti       5.80562      2.10671     10.29568         2.725477     -0.744463      1.961121
Ti       5.99219     13.68219     10.30031         0.326723     -1.928689     -0.736148
Ti       5.96827      5.81454      1.88510        -2.703037      0.491129      0.687711
Ti       6.00571      6.00429     14.48586        -0.839766     -2.237377      1.640258
Ti       5.66537      6.21602      6.35818        -0.437618      0.196088     -1.284588
Ti       5.65204      5.82218     10.51278         1.879657      0.275626     -1.370287
Ti       5.68242      9.94099      1.78665         1.489184      1.828801      0.562996
Ti       5.81556      9.92861     14.62751        -0.433622      0.520249     -0.823143
Ti       5.79912      9.94520      6.07187        -1.115972     -1.829950      1.094099
Ti       6.06760      9.88144     10.42413        -0.444256      1.090722     -0.488315
Ti       9.68433      1.73225      1.81273         1.986481      0.145775      1.943114
Ti      10.02056      1.84196     14.74751        -1.946632     -0.068278      1.392829
Ti       9.84976     13.58079      1.89497        -0.021521      0.377613     -0.381029
Ti      10.09593     13.62172     14.65838        -2.559643      0.975854      2.269452
Ti       9.80413      2.07476      6.16886        -0.734730      0.472247     -0.121362
Ti       9.71174     13.57495      6.10963         1.104833     -0.428051     -0.330653
Ti       9.57795      2.00526     10.33639         0.082860     -0.032205     -1.850088
Ti       9.89941     13.80182      9.83857        -2.381311     -4.369848      1.129166
Ti       9.88851      5.77934      1.56681         1.104548      2.242435      1.996344
Ti       9.85603      5.67263     14.52858        -0.651692      0.812272     -0.115433
Ti       9.64505      5.93968      6.40635        -2.693272     -0.516402      0.095357
Ti       9.36666      5.98260     10.32939         3.469447     -0.153657      0.330573
Ti       9.82543      9.69498      2.09817        -1.397145     -0.183486     -0.684449
Ti       9.71841      9.44946     14.70899         0.838981      1.904716     -0.929504
Ti       9.67066      9.70858      6.05593        -2.681289     -0.956111      1.456656
Ti       9.78240      9.76557     10.50008        -0.304839     -0.883851     -1.733860
O       2.06276      2.08869      0.21712        -0.413400      0.222940     -1.251621
O       1.89707      1.57136     12.62820        -2.385653      1.914896      0.114271
O       1.57676     13.50313      0.27003         0.379238      1.261895      1.862970
O       1.68609     13.53352     12.67529         0.135057      0.163666     -1.195874
O      13.46781      2.05330      0.52849         0.905604     -0.392823     -0.531362
O      13.46412      1.29157     12.42499         0.723526      2.051276      0.982948
O      13.88865     13.56769      0.01218        -0.756822      0.214415      1.847024
O      13.55568     13.59790     12.76217         0.519401      0.125287     -0.507929
O       1.84365      1.68673      4.62293         0.721717      0.644516      0.981779
O       1.77805     13.71171      4.43804         0.631097      0.446571      0.190951
O      13.46800      2.16696      4.37869         0.220855      0.093378     -0.132278
O      13.83248     13.29969      4.28174        -0.543804      0.145436      1.274239
O       2.10064      1.99928      8.62453        -0.123490     -0.622216     -1.488846
O       1.54636     13.87207      8.39725         1.201558     -1.438658      2.105903
O      13.58774      1.81963      8.42792        -0.111253      0.530471     -1.040309
O      13.38686     13.08968      8.25229         0.824739      0.687859     -2.701715
O       1.84726      5.26536     16.54353         0.279177      1.376846      1.172827
O       2.12448      5.70974     12.63193        -1.459439      0.420912      0.445604
O      13.51376      5.53564     16.55993         1.673223      0.525840     -0.118601
O      13.84612      5.67234     12.51115        -0.344411     -0.301309      1.458802
O       1.89768      5.90664      3.97453         0.007115     -0.158486     -0.032026
O      13.31468      5.88894      4.27568        -0.322749     -0.057876      1.711468
O       1.95508      5.66825      8.29660        -0.733046      0.197871      1.031291
O      13.90692      5.73555      8.66639        -0.366566      1.332822     -0.076940
O       2.17770      9.64378      0.48709        -0.860006      0.888891      0.192138
O       1.94233      9.72395     12.32922        -0.452102      0.094901     -0.173706
O      13.66428      9.65196      0.09217        -0.270997     -0.582811      0.689187
O      13.65130      9.69191     12.54584         0.471421      0.624116     -1.394894
O       1.91570      9.70059      4.26180        -0.299766     -0.319680      0.183374
O      13.55029      9.14606      4.15300        -0.195129      1.725652      1.841681
O       2.33624      9.58294      8.23889        -1.655202     -0.577915     -0.215941
O      13.40291      9.96214      8.35398         0.818390     -1.872811      0.848887
O       6.04840      2.23202      0.27339        -0.010347     -0.334556     -0.845538
O       5.93184      2.22229     12.58096         0.125466     -0.220704      0.531320
O       5.81677     13.89042      0.10434        -0.147962     -0.128899      1.749354
O       5.67942     13.69824     12.58012         0.691213     -0.040598     -2.730915
O       5.96568      1.97778      4.22705         0.078671      0.330074      0.591297
O       5.91319     13.85174      4.17817        -0.238942     -0.662539      0.952338
O       5.78169      2.20348      8.48828         0.773002     -0.527121     -0.642715
O       5.92039     13.51292      8.35905        -0.126000      1.384484     -0.970461
O       6.11541      5.91189     16.61923        -0.203797     -0.069163      0.184883
O       5.94541      6.33759     12.61394        -1.245270     -2.533253     -0.000991
O       5.91273      5.95577      4.31435        -0.162428      0.627436     -0.078237
O       5.39596      5.66598      8.53041         1.178829      0.684086     -0.205865
O       5.50586     10.13508     16.57957         0.402786     -1.331841      0.216416
O       6.22291      9.97501     12.75149        -1.307799     -0.113653     -0.950347
O       5.83490      9.85701      4.30186         0.817591     -0.213002     -1.867995
O       5.88530      9.76194      8.47450         0.753615      0.563023      1.216004
O       9.73583      2.01059      0.08400        -0.044587      0.303292     -2.994091
O      10.07852      1.74782     12.28073        -0.906230      0.555721      0.913799
O       9.60887     13.86127      0.05112         0.220503     -0.725040      0.078366
O       9.76523     13.77572     12.92154        -0.082709     -0.399573     -2.168271
O       9.43325      2.17266      4.21876         1.512577     -0.380005      0.526128
O       9.76566     13.39193      4.12466        -0.916062      0.598471      0.766919
O       9.64671      1.89566      8.33693         0.580477     -1.080666      0.106744
O      10.04098     13.81896      8.07579        -0.411518      0.036384     -0.962266
O       9.75531      5.98698     16.39832        -0.147843     -0.187659     -0.243804
O       9.92195      5.46029     12.10612        -1.035435      0.113369      2.680683
O       9.48895      6.01828      4.45414        -0.276377     -1.348673      1.119119
O       9.30539      5.95240      8.39845         1.374782     -0.737859     -0.592357
O      10.15249      9.72241     16.36661        -0.496065     -1.222330      2.600673
O       9.90715      9.78704     12.43342        -0.530298      0.741294      2.499388
O       9.40171      9.75159      4.09084         0.736584      0.751928     -0.058475
O       9.55620      9.68693      8.49311         0.537520      0.152602     -0.361131
O       4.03960      1.96157      2.00655        -0.287227      0.284230      0.850363
O       3.90584      2.11942     14.39868        -0.835770     -1.009080      0.587723
O       3.82377     13.87821      1.95688         0.805472     -1.335044      1.472956
O       3.70174     13.52061     14.46327         4.556930      0.175807      0.524790
O       0.13470      2.05926      2.24701        -0.327429      0.338099     -0.012291
O       0.09001      1.56633     14.68951        -0.357486      1.293430     -0.411946
O      15.59107     14.05029      2.62518         1.061036     -1.023508     -1.995931
O      15.51872     13.79915     14.76612         1.957307     -0.191758     -0.622282
O       4.13244      1.95038      6.60033        -3.339219     -0.405204     -1.024232
O       3.88974     14.01776      6.31246         0.063527     -0.914304      0.005064
O      15.26450      1.85114      6.63139         1.388180      0.372221     -0.502708
O      15.48163     13.64710      6.31260        -0.402059     -0.636828      0.094233
O       4.03274      2.19125     10.64350        -1.646223     -1.735294     -0.205813
O       3.89985     13.31769     10.57740        -1.384335      1.283457     -1.132926
O      15.47382      1.73529     10.25069         0.464037     -0.631571      0.815133
O      15.52402     13.28854     10.65379         0.201967      1.659749     -0.949918
O       4.02075      6.00130      1.86089        -1.211846      0.650024     -0.275154
O       3.83349      5.86060     14.90109         0.736546      0.808610     -0.932976
O      15.57094      5.55537      2.15535        -0.154039     -0.474489     -0.990702
O       0.01528      5.50429     14.54201        -0.500625      0.866292     -0.197141
O       3.82140      5.75045      5.85477        -0.197589     -0.028942      1.345078
O      15.58328      5.88039      6.04256        -0.559338      0.740413      0.126577
O       3.80793      5.86999     10.59599        -0.282968     -1.301273      0.335906
O       0.06274      5.79068     10.73949         2.179795      0.087198     -0.983865
O       4.04840      9.49195      2.15114        -3.038578      0.892078      0.926162
O       3.85745      9.59638     14.22329        -0.468650      0.906035      0.862574
O      15.47089      9.47246      2.41247         3.002279      1.072097     -0.547697
O       0.00411      9.52445     14.67668         1.637441      0.850473     -1.124810
O       3.77805     10.00059      6.00031        -0.035795      0.133918      0.199326
O      15.45949      9.75777      6.43456         2.217616     -1.302693     -0.089519
O       4.10096     10.07190     10.38571        -2.107931     -1.454998      0.848531
O       0.19820      9.80404     10.21152        -1.633451     -2.072090     -0.248713
O       7.97038      2.20794      2.10858        -2.449626     -0.187989     -0.011308
O       7.83650      2.20747     14.43636         2.588393      0.083788      0.610271
O       7.95881     13.86592      2.07319        -1.309067     -1.099222      0.241185
O       7.54714     13.99990     14.44995         4.282160     -1.120461      1.238375
O       7.96437      1.66421      6.32920        -1.804045     -0.222057      0.404444
O       7.91622     13.92122      6.22708        -1.202816     -0.096527     -0.062888
O       7.74225      1.72205     10.41416         1.319235      0.206241      0.373427
O       7.93734     13.66932     10.17006        -0.145164      1.181552      0.181647
O       7.68186      6.02693      2.14947         3.620344      0.295064     -0.453132
O       7.89012      5.77447     14.33113        -0.387040     -0.347783      0.115114
O       7.46440      6.28262      6.53573         0.268394     -1.086432      0.074723
O       7.66601      6.01020     10.36605        -2.480663     -0.361895      1.062115
O       8.03214      9.89153      1.48261         0.498065      0.102022      0.950351
O       7.74297     10.04324     14.68352         1.906160     -1.286434      1.156775
O       7.75492      9.71338      6.48645        -0.153880     -0.442205     -0.949411
O       7.99805      9.98092     10.72638        -3.219489     -0.500338     -0.265502
O      11.47244      2.17844      2.23416         1.109132     -1.112995      0.315555
O      11.72448      2.12530     14.85006         1.623429     -0.401711     -1.146025
O      11.82353     13.63464      2.50353         0.887275     -0.673612     -1.289860
O      11.76752     13.74885     14.86255         2.432836     -0.444726      0.093422
O      11.71971      2.09237      6.48305        -0.741450      0.552911     -0.266008
O      11.61358     13.05414      5.95210         1.379320      1.611411      0.241723
O      11.76426      1.96221     10.15496        -1.723493      0.750821      0.892976
O      11.86353     13.23812     10.28133        -2.054350      0.538459      1.320900
O      11.76230      5.95589      1.83269        -1.549069     -0.338017      0.117879
O      11.80422      5.72805     14.44897        -1.159560     -0.168405     -0.126130
O      11.46701      6.03218      6.67282         0.605052     -0.907178     -0.322789
O      11.71738      5.63253     10.46606         1.667413      0.479536     -0.837699
O      11.79243      9.95295      2.36495        -1.531794     -1.712140     -1.912945
O      11.76388      9.32818     14.51116        -0.401714      0.977877     -0.181430
O      11.52040      9.81567      5.97534        -0.407261     -0.255163      0.505763
O      11.64583      9.87347     10.57564         2.499136     -0.216266     -0.509044
O       2.24393      3.97002      2.19576        -0.493207     -0.546179      0.367848
O       2.00592      3.80380     14.29051        -1.053810     -0.602528      0.538570
O       2.21417      0.08611      2.12627        -1.725456      0.111300      0.412515
O       2.03007     15.50788     15.08424         0.135459      1.116156     -0.150554
O      13.33133      3.85963      2.22891         0.887608      1.497209      0.164874
O      13.71934      3.64775     14.37193         0.094366     -0.088064      0.345704
O      13.69317      0.13168      2.53815        -0.556412     -0.533951     -0.496788
O      13.52817      0.12275     15.03800         0.779271      0.435603     -0.949657
O       1.69668      4.00257      6.21459         0.970846     -2.439393      0.939407
O       1.60534      0.06715      6.78438         0.511264      1.278955     -0.694214
O      13.69444      4.13303      6.52713        -0.503690     -0.092823     -0.042968
O      13.47991     15.29428      6.15167        -0.389271     -0.458973      0.337638
O       1.86799      3.54244     10.58437        -0.055671      3.704940      0.992078
O       1.97079     15.44649     10.52070         0.399940     -0.008959      0.200048
O      13.79719      3.81227     10.27155        -0.225867     -1.543404      1.103907
O      13.40137     15.27819     10.05868         1.200576      1.245304      1.111882
O       1.63414      7.54332      1.68377         1.030035      0.749292      1.001231
O       1.99139      7.79783     14.64410        -0.990189     -0.515986      0.018814
O      13.76138      7.60591      2.15035        -0.659333     -2.083478     -1.776882
O      13.69540      7.60055     14.44464         0.631550     -0.725864      0.141747
O       2.04842      7.70989      5.99034        -0.724840      2.021446      1.061835
O      13.43976      7.79985      6.42792         0.448766     -1.459888      1.021209
O       2.18753      7.68034     10.14920        -2.200400      0.593599      1.154335
O      13.81026      7.82249     10.65263         0.002557     -0.551473     -1.024614
O       1.86361     11.77423      2.52633         0.535035      0.024665     -0.890070
O       1.87665     11.75398     14.85656        -0.228080     -2.268431     -1.063769
O      13.95948     11.54112      2.17677        -0.217631      0.923898      0.338524
O      13.77053     11.55400     14.72369        -0.613475      0.561620     -0.675822
O       1.89097     11.80116      6.52946        -0.174303     -0.062142     -0.739817
O      13.71195     11.36151      6.15682         0.182558      2.294602     -0.542137
O       1.77367     11.51430     10.00446         1.044709      1.529320      0.696516
O      13.83910     11.49456     10.28054        -0.047739      1.252414      2.051881
O       5.80297      4.06650      2.23059         0.360839     -0.811373     -0.192082
O       5.75308      4.06653     14.68642         0.998477      0.507370      0.144307
O       5.95986      0.20552      2.44599        -0.240095     -3.291952     -1.430347
O       6.00168      0.19238     14.50104        -0.723515      0.914174      0.476285
O       5.82592      3.85946      6.21870         0.788388      0.026888      0.567277
O       5.83989      0.11979      6.39424         0.469804     -1.671701     -0.103572
O       6.04892      3.95871     10.47711        -0.272658      1.116788      0.814902
O       5.89532      0.05179     10.09431        -0.776817     -0.772689      0.823808
O       6.14116      8.18891      2.01111        -0.197360     -2.091627      0.139498
O       6.03142      7.92378     14.69338        -0.206798     -0.111415      0.556336
O       5.44732      8.16586      6.53739         0.424469     -3.564286     -0.692723
O       5.81728      7.84395     10.47198         0.813653      0.125084      1.036822
O       5.94455     11.83348      2.04310        -0.302996      1.352988      0.630968
O       5.83727     11.85948     14.63495        -0.170339     -0.290703     -0.244205
O       6.23802     11.70410      6.24348        -1.010402      3.610856     -0.445448
O       5.94194     11.74754     10.20202         0.863343      0.365603      1.499882
O       9.82151      4.11680      2.09903        -0.768401     -0.288808     -0.291338
O       9.79909      3.90912     14.64612        -0.026620     -0.791223     -0.735756
O       9.87092     15.52787      1.94494         0.028880      1.125766      1.156483
O       9.78980      0.09739     14.68157        -0.402527     -0.289766     -0.143866
O       9.30312      3.81649      6.34150         0.866046      2.397833      0.293045
O      10.13483      0.08919      5.88737        -0.861251     -1.698828      0.523617
O       9.57148      3.79649     10.09341        -0.034057      0.185602      0.843369
O      10.19585     15.46555     10.17840        -0.562550      2.264818      0.866164
O       9.93939      7.76393      2.42025        -1.228216      0.963514     -2.592609
O       9.56915      7.68885     14.24198         0.513457     -0.291267      0.665299
O       9.43414      7.80897      6.39846         1.395893      1.130294     -0.744479
O       9.80340      7.81214     10.46522        -0.039064     -0.655330      0.119877
O       9.96678     11.68784      1.84505        -0.632446     -0.383850      0.239300
O       9.71274     11.84247     14.97885         0.210033     -1.170144     -1.105459
O       9.51374     11.64844      6.42028        -0.260609      0.280235     -0.931437
O       9.81146     11.80408     10.20012         0.016068      0.193669      1.035095
