  # total energy = -7845.24737437 
CRSYTAL
PRIMVEC
    15.6080000000000005    0.0000000000000000    0.0000000000000000
     0.0000000000000000   15.6080000000000005    0.0000000000000000
     0.0000000000000000    0.0000000000000000   16.6239999999999988
PRESSURE
3.13091 3.89079 -0.056794 -0.557994 -0.07915 -0.05526
PRIMCOORD
320 1
Pb       3.54734      4.01241      4.07677         1.189458     -1.140933      0.259738
Pb       3.77393      3.99797      0.24203         0.353350      0.098829     -0.385793
Pb       3.71684      0.03745      4.25955         0.734643     -0.643370     -0.926208
Pb       3.89118     15.43603     16.27578        -0.285294      0.486239      0.532910
Pb      15.46767      3.96081      4.13323         0.416738      0.241069      0.751213
Pb       0.10266      3.73118     16.43961        -1.115888      0.145158     -0.102962
Pb       0.15404     15.42222      4.33289        -0.403207      0.074430     -0.121643
Pb       0.14603     15.37745      0.05386        -1.543185      1.066995     -0.860228
Pb       3.93626      3.90375      8.34298        -0.061369     -0.520272      1.247275
Pb       3.87604     15.52406      7.94112         0.897128      0.700455      1.756128
Pb      15.55275      4.03671      8.34310        -0.350564     -1.132986     -0.186679
Pb       0.17169      0.31424      8.56386        -0.184132     -0.213003     -0.982838
Pb       4.19477      3.79702     12.46235        -0.754499      0.469911      0.082049
Pb       3.90958     15.41988     12.35715        -0.971991      0.054005      1.611465
Pb      15.47961      3.73515     12.42256        -0.354299     -0.353298      0.055660
Pb       0.13452      0.29055     12.53952        -0.503629     -1.615308      0.692491
Pb       3.73523      7.67208      4.31233         0.131136      0.233488     -0.425026
Pb       3.77289      7.95614      0.08869        -0.903852      0.008481      0.454469
Pb      15.36584      8.07561      4.25660         0.939639     -2.368486      0.249487
Pb      15.44157      7.86145      0.27903         0.093810      0.636010     -0.444704
Pb       3.66728      7.89610      8.18716        -0.231239     -0.664874      0.162891
Pb      15.53729      7.54361      8.40765         0.568869      0.432115     -0.484768
Pb       4.05367      7.96407     12.37585        -0.698216     -1.097673     -0.728386
Pb       0.07444      7.68543     12.69523        -0.428330      0.593832      0.650304
Pb       4.14526     11.46222      3.84839        -0.680770      1.465548      1.761690
Pb       4.12505     11.57869     16.37889        -1.156590      0.465056      1.286002
Pb      15.35292     11.70749      4.39872         0.994623      0.887503     -0.094355
Pb       0.00121     11.67432      0.17659         0.415344     -0.292426     -0.196258
Pb       4.14406     11.68014      8.56950        -0.502709      0.051103     -0.915401
Pb       0.04412     11.38815      8.67240        -1.097891      1.017151     -1.723970
Pb       3.49116     11.73083     12.26563         1.922770      0.210837      0.254467
Pb       0.01769     11.63970     12.41667        -1.294063      1.131459      0.838265
Pb       7.71965      3.98133      4.43320         0.221927      0.244137     -0.683371
Pb       7.87555      3.69791      0.21399         0.250684      0.132474     -0.467897
Pb       7.34502      0.19094      4.02779         1.193637     -0.912947      0.597295
Pb       7.88162      0.26340      0.22975         0.476187     -0.031402     -0.434717
Pb       8.11431      3.88062      8.74954        -1.549285      0.466336     -0.868074
Pb       7.85333      0.20673      8.35762        -0.172625     -0.341258     -0.663339
Pb       7.84161      3.58424     12.69733        -0.443994      0.594780      0.002853
Pb       7.59866     15.30970     12.37498         1.248137      1.778951      0.576727
Pb       7.92272      7.73065      3.96909         0.503965      0.685540      0.648003
Pb       7.97614      7.79971     16.35642        -0.039630      0.667602      1.135751
Pb       7.88875      7.57572      8.15006        -0.198875      0.365369      0.559803
Pb       7.69433      7.63111     12.48303         0.092979      0.098273     -0.443569
Pb       7.68464     11.81308      4.32201         0.169034     -0.572804      0.186187
Pb       7.56291     11.35161     16.61355         0.331393      0.505278      0.872428
Pb       7.56575     11.91906      8.66206         2.036615     -0.667870     -0.694590
Pb       7.57960     11.95951     12.48993         0.204696     -1.492578     -0.577438
Pb      11.95272      4.12534      4.01769        -1.022600     -0.613937      0.879004
Pb      11.70742      3.80631      0.17904         0.601115     -0.121777     -0.057096
Pb      11.50492      0.22190      3.82010         0.223545     -1.641591      0.507272
Pb      11.57205     15.49574     16.55474         0.509417      0.012662      0.925278
Pb      11.56186      3.75133      8.19284         0.798530      0.047046      0.491626
Pb      11.39733      0.01257      8.39525         0.446703     -0.825728     -1.168928
Pb      11.79294      4.14066     12.58634         0.262636     -0.939196     -0.493106
Pb      11.79985      0.23148     12.39361        -0.256379     -1.352120      0.653106
Pb      11.89733      7.98486      3.91651        -1.628577     -1.834372      0.350432
Pb      11.40173      7.75731     16.52947         1.486699      0.370853      0.090941
Pb      11.28673      7.84913      8.01876         0.940570      0.520343      1.754968
Pb      11.84063      7.87744     12.21515        -1.627306      0.818987      1.896855
Pb      11.64661     11.91145      4.34705        -0.481138      0.891920      0.378130
Pb      11.55745     11.78003      0.33490         1.090960      0.609617     -1.112569
Pb      12.04515     11.30687      8.26047        -1.041409      2.307445      1.604956
Pb      11.64055     11.78974     12.42413         0.277721     -0.438017     -0.153269
Ti       1.95110      1.95232      2.02843        -0.719555     -1.170368      2.214050
Ti       1.95458      1.98679     14.55965        -1.218538     -1.430253     -1.066128
Ti       2.00771     13.78957      2.11285         1.537230     -2.490867      2.428366
Ti       2.00107     13.43416     14.69321        -0.959213      2.151960     -0.797996
Ti      13.76786      1.95857      2.23751         0.365326     -2.868361     -2.897330
Ti      13.51967      1.82281     14.77652         3.048589      0.322578     -0.267877
Ti      13.69937     13.69334      2.24838        -1.582448      0.071651     -1.039999
Ti      13.69711     13.55254     14.70115         0.267887      0.598828     -1.380498
Ti       1.92461      1.90495      6.29445        -2.454460     -0.910324      0.367331
Ti       2.11638     13.48673      6.25469        -1.275922     -0.828688      0.163666
Ti      13.51741      1.85830      6.39227         0.244637      0.058428      1.716097
Ti      13.82764     13.71418      6.43211        -0.892326     -1.342916      0.529637
Ti       2.11554      1.86666     10.59753        -0.194044      0.386063     -0.538186
Ti       1.78082     13.55166     10.22266         1.037445      1.143351      1.345963
Ti      13.58242      1.77467     10.37815         1.517664      2.065697      1.093800
Ti      13.59815     13.63555     10.47442         0.500118     -1.286449     -1.583759
Ti       1.88759      5.78679      2.20664        -1.438708      1.485075      2.405710
Ti       2.08686      5.78082     14.59596        -1.697498      1.173161     -0.205723
Ti      13.73563      5.74019      1.95025        -1.683097      1.725599      0.617637
Ti      13.65964      5.74873     14.66380         0.752586      0.255319      1.789274
Ti       1.94888      5.53664      6.32412        -2.065781      4.819553      0.365258
Ti      13.51611      5.94547      6.54303         1.123442     -2.808869     -1.144489
Ti       1.81556      5.85917     10.72748         2.367370     -0.747532     -0.694498
Ti      13.58253      5.88311     10.52635        -1.053029     -2.076731     -1.435608
Ti       2.01086      9.69857      2.46914        -0.451100      0.903283     -2.598500
Ti       1.90073      9.64975     14.58291        -1.486918      0.518298      0.916251
Ti      13.61997      9.96174      2.34399         2.499393     -2.445562     -2.537078
Ti      13.67674      9.85232     14.74590        -1.812177     -1.608079     -0.329687
Ti       2.13059      9.75672      6.21048        -0.081382      0.167419      2.103203
Ti      13.71981      9.68361      6.32854        -1.451521      1.498083      0.473979
Ti       1.84780      9.68837     10.37729         1.635522     -1.711069     -1.361479
Ti      13.77476      9.69652     10.68634        -3.388895      0.853655     -0.558088
Ti       5.69302      2.00508      2.00562         1.170478     -0.955270      1.571439
Ti       5.71892      2.09492     14.65753         1.343144     -0.598058      0.183568
Ti       5.96467     13.57811      2.07664        -2.060551     -1.267903      2.069504
Ti       6.09652     13.80730     14.78659        -1.728461      0.048299     -1.151339
Ti       5.68192      2.07582      6.19757         3.085613     -2.443342     -0.475816
Ti       5.93476     13.56135      6.32205        -0.457007     -0.124641     -1.964628
Ti       5.87353      1.95729     10.63082        -0.757011     -1.479057     -1.253017
Ti       5.78654     13.67491     10.58017        -1.142964     -0.708941      1.599082
Ti       6.01209      5.69904      2.21103        -0.716986      0.137563     -0.894841
Ti       5.97564      5.87662     14.89124        -1.669599     -0.646941     -2.086271
Ti       5.70002      5.74581      6.45892         3.988486      1.620653     -0.862907
Ti       5.85425      5.77775     10.32906        -0.607629      0.345385     -0.402657
Ti       5.96266      9.47426      2.19823        -0.085017      1.791733      1.441590
Ti       5.72982      9.73166     14.39063         1.542832      0.054752     -0.556786
Ti       5.95253      9.67322      6.43771         1.491415      1.258922     -2.131510
Ti       5.98832      9.66344     10.36157         0.193876      1.122612      0.422423
Ti       9.73579      2.07815      2.18351        -0.618794     -1.691134     -0.128994
Ti       9.77302      1.85578     14.68960        -0.989058     -1.000705      3.599337
Ti       9.50901     13.52041      1.83260         1.828898      2.846152      1.510271
Ti       9.73903     13.51611     14.55284         2.524600      2.215403     -0.485961
Ti       9.67704      1.97235      6.10557         2.243033     -1.441785     -1.643564
Ti       9.78444     13.69457      6.35289         0.298068     -0.096550      0.211677
Ti       9.81213      2.01661     10.73045        -0.822495     -0.850760     -0.973937
Ti       9.88538     13.72821     10.44725        -1.333782     -1.388434      0.205984
Ti       9.78389      5.77300      2.06759         1.050367      0.548786     -0.206693
Ti       9.76872      5.69515     14.67613         1.313830     -0.093864      0.434423
Ti       9.80269      5.77051      6.31476        -1.974649     -0.845342     -0.937871
Ti       9.68902      5.83705     10.58390         0.240394      0.831672     -0.438279
Ti       9.82537      9.94940      2.10852        -1.815356     -1.670730      2.727880
Ti       9.73017      9.93780     14.48163         1.748764     -1.100171     -1.436717
Ti       9.72818      9.98654      6.31233        -1.589169     -0.170958     -0.783179
Ti       9.76398      9.77512     10.41628         0.384391      1.098224     -0.688108
O       1.87445      2.13260      0.35506         1.161548     -0.784592     -4.413392
O       1.84562      2.09097     12.66428         0.093737     -0.912004      1.270659
O       1.86288     13.64806      0.37097         0.634454      0.095304     -0.454352
O       2.03970     13.60651     12.89969         0.014714     -1.383359     -0.681855
O      13.81572      1.53981      0.41445        -0.757916      1.611129      0.630929
O      13.82170      2.04833     12.87679        -0.751825     -0.536107      0.303888
O      13.77340     13.61560      0.39919         0.403272     -0.017376     -0.853972
O      13.63937     13.45557     12.74960        -0.088654      0.202753      1.661839
O       1.79598      1.90455      4.51034         0.675650      0.209395      0.181957
O       2.07527     13.89796      4.47510         0.225721     -0.633891     -0.086242
O      13.52428      1.88898      4.67350         0.641280      0.140360     -2.577380
O      13.44673     13.47205      4.60292         0.589821      0.193024     -0.591750
O       2.06344      1.80557      8.77181        -0.165003     -0.108530     -0.806172
O       1.73795     13.29249      8.48992         0.458687      1.253712     -0.159975
O      13.85464      1.79913      8.66030        -0.872207     -0.125412     -0.145223
O      13.58093     13.32029      8.59049         0.995755      1.344597      0.616254
O       2.19171      5.89809      0.52267         0.566887     -0.085143     -3.333989
O       1.87986      5.89980     12.67065        -0.002495     -0.275589     -0.501198
O      13.24516      5.68775      0.28802         1.174689      0.202542     -1.014628
O      13.65828      5.61122     12.87652         0.998307      0.525302     -1.942098
O       2.05550      5.79085      4.21703        -0.470876     -0.814926      2.330259
O      13.79038      5.37729      4.75479        -0.955629      1.333564     -0.325634
O       1.86727      6.03682      8.29276         0.570519     -0.248265      1.050853
O      13.48821      5.99920      8.59626         0.277105     -0.339468      0.376754
O       1.78841      9.65838      0.37821         0.700104     -0.545956     -0.065334
O       1.96662      9.46646     12.78065        -0.512607      1.628799     -0.488640
O      13.97696      9.92952      0.39063        -0.388062     -1.346850      0.428781
O      13.67807      9.67302     12.67807         0.290214      0.170231      0.228621
O       2.20517      9.67525      4.48313        -0.401689     -0.312957     -1.212201
O      13.49452      9.59454      4.42149         0.676308      0.690583     -0.298251
O       1.74836      9.71517      8.38176         0.822565     -0.730309      2.423404
O      13.81400      9.85214      8.75127        -0.268088     -1.225790     -1.448569
O       5.97747      1.91336      0.22973        -1.144177      0.424509     -0.387393
O       5.86916      2.05372     12.85016        -0.820592     -0.111657     -0.607009
O       6.17971     13.69725      0.33121        -0.426301     -0.126856     -3.376061
O       5.84529     13.83769     12.64331        -0.450311     -1.723430      2.232417
O       5.68699      1.74517      4.40245         0.435724      0.936632      0.298978
O       6.13870     13.58634      4.42815        -0.775421      0.361525      0.422174
O       5.75049      1.85939      8.86353         0.428851      0.190896     -1.627707
O       5.89223     13.54403      8.88206         0.195581      0.216505     -3.838894
O       5.67163      5.50297      0.31806         0.561902      0.581315      0.854074
O       5.96127      5.92076     12.98557        -0.097226      0.210897      0.073321
O       6.29971      5.93904      4.64648        -1.029257     -0.589863      0.404164
O       5.69176      5.62068      8.53242        -0.111892      0.316485      0.411738
O       5.77072      9.81163      0.45810        -0.303871     -0.868955     -2.183257
O       5.85619      9.49770     12.56036         0.199551      0.651291      1.886559
O       5.92225      9.64261      4.39154         0.526528     -0.531830      1.017628
O       6.02327     10.12351      8.57013        -0.931160     -1.260000      0.821141
O       9.75692      1.63789      0.31628        -0.166810      0.856579      0.360314
O       9.73527      1.99371     12.99115         0.337607      0.435399     -3.363581
O       9.34313     13.14996      0.09819         0.947067      1.546683     -0.209476
O      10.05916     13.42079     12.70243        -0.982978      0.900178      1.113941
O       9.78773      1.98643      4.15971         0.122214     -0.332165      1.805317
O       9.73052     13.35760      4.57304        -0.085677      0.788599     -0.279787
O       9.55280      2.04686      8.89865         0.722937     -1.250952      0.266409
O       9.57124     14.02074      8.69719        -0.172491     -0.653733     -0.273880
O       9.96591      5.83021      0.19889        -0.226883      0.036104      0.073881
O       9.46455      5.51093     12.92921         0.190442      0.464128     -0.100525
O       9.76211      5.51230      4.53902        -0.405080      0.575399      0.421481
O       9.82211      5.72147      8.75398         0.400941     -0.384167     -0.222746
O       9.70668      9.72377      0.37351         0.668450     -0.133349     -1.372370
O       9.86438      9.89834     12.65789        -0.487643     -0.223605      0.762310
O       9.63476      9.72182      4.35499         0.995630      0.383893      1.157823
O       9.89448      9.83074      8.57418        -0.872664     -0.847117      0.791289
O       3.89804      2.03420      2.23083        -0.052933     -0.074845      0.169161
O       3.79751      2.02051     14.68791         0.913619     -0.063747      0.962814
O       3.98277     13.46638      2.34170        -1.721204      0.681901     -0.506703
O       3.97041     13.54058     14.98165         1.398532      0.052509      0.267886
O       0.15149      1.67870      2.08555        -2.548040      0.367766      2.019069
O       0.08297      1.80883     14.87072         0.753687      0.857646      0.320207
O      15.51061     13.75328      2.63412         2.427120     -0.801772     -0.120226
O       0.07844     13.42584     14.93773        -0.930542      0.755410     -0.096754
O       3.96904      1.83231      6.38710        -3.194976     -0.035857      0.925912
O       3.97391     13.69077      6.66253        -1.218298     -0.112206     -0.314319
O      15.60036      2.03598      6.75690         0.781104     -0.129641     -0.384728
O       0.16933     13.47926      6.22433        -2.011916      0.177027      0.109978
O       3.93281      2.02550     10.79477        -0.240840     -0.698353      1.112481
O       3.82732     13.35173     10.40527        -0.820599     -0.205439      1.219993
O       0.04165      1.68105     10.74423        -0.435299      0.868151     -0.574225
O      15.57404     13.61362     10.76259         0.461678     -0.145985     -0.441161
O       4.16142      5.63115      2.70336        -0.198870      0.863835     -1.228000
O       3.85540      6.21294     14.98704        -0.011438     -1.203996     -0.481278
O      15.57676      5.72080      2.39928         1.246025      0.279617     -0.525388
O       0.02441      5.83107     14.97722         0.808449     -0.063480     -0.230549
O       3.90474      5.67233      6.38641        -0.786938      0.686084     -0.034589
O       0.02368      5.45325      6.52927        -0.515246      1.285848     -0.034733
O       3.86704      6.13418     10.46193        -1.111731     -0.910009      0.955176
O      15.47037      5.85029     10.28922         2.545440      0.191908      1.403595
O       3.98570      9.58220      2.57599        -0.300619     -1.142368     -0.994185
O       3.83249      9.91685     14.57482         1.610214     -1.241079      0.717378
O       0.09792      9.55774      2.71459        -1.819883      0.762173     -0.615894
O      15.47525      9.97137     14.63334         3.298004     -1.581240      0.021842
O       4.16933      9.69577      6.57059        -3.962822     -0.945834      0.458151
O      15.46150      9.72180      6.28482         2.218207      0.073005     -0.166462
O       3.97155      9.84350     10.55751        -1.344590     -1.083236     -0.161130
O      15.54103      9.57504     10.50515         2.784557      0.193411      0.733390
O       7.80876      2.04439      2.28513        -0.500817     -1.321121     -0.306953
O       7.71381      2.03259     14.95866         0.778411      0.247299     -0.253294
O       7.82273     13.17563      2.38302        -0.763163      0.909313     -0.019532
O       7.91834     13.57858     14.46035        -2.516930      0.288233      0.328645
O       7.96028      1.97494      6.30049        -3.114410      0.247669      0.683833
O       7.64532     13.22026      6.62377         2.515244      0.926347      0.553896
O       7.67267      1.82208     11.07521         1.634601      0.202542     -0.843435
O       7.79084     13.52166     10.85895         0.093078      0.825339     -0.410035
O       7.96720      5.55047      2.44457        -1.904850      0.693067     -0.102170
O       7.75896      5.67123     15.18641         1.161936     -0.186319     -0.458214
O       7.78490      5.43310      7.04528         1.015847      1.066593     -1.685816
O       7.75045      5.68159     10.53353        -0.996064      0.186410      0.353217
O       7.83168      9.79037      2.31193         1.012662     -0.112424     -0.222661
O       7.87688      9.77824     14.94101        -0.089738      0.044541     -0.839714
O       7.81215      9.92544      6.77978         1.245116     -0.216234     -0.867830
O       7.85943      9.87069     10.66214         0.039437     -0.211318     -0.009393
O      11.80378      1.93170      2.31109         0.197257      0.298438      0.092170
O      11.73672      1.71359     14.93772        -0.284722     -0.071225     -0.386379
O      11.62739     13.59394      2.10172        -0.437027     -0.455682      0.202369
O      11.75032     13.74942     14.94243         0.713593     -0.735768      0.138967
O      11.57188      1.53157      6.61632         0.958326      1.219906      0.206019
O      11.57999     13.73521      6.61807         0.559380      0.307990      0.155966
O      11.72918      2.09215     10.59809        -1.162823     -1.226144      0.665836
O      11.70858     13.72715     10.53544         1.386048      0.479848      0.642753
O      11.69207      5.68757      2.32650         1.426052     -0.912229      0.881864
O      11.73940      5.38130     14.49904        -2.051939      1.683209      1.419755
O      11.64620      5.98280      6.57835         0.068356     -0.715195     -0.250222
O      11.60482      5.90275     10.98918         0.354029     -0.598192     -0.431427
O      11.85547      9.61849      2.33472        -2.309672      0.601281     -0.471998
O      11.73045      9.85056     14.76312        -0.730115     -0.858677      0.592783
O      11.65038      9.78773      6.66368         0.373695     -2.129367     -1.396779
O      11.73935      9.40880     10.47109        -0.205880      0.451924      0.805481
O       1.89315      3.79677      2.16449         0.764771      2.070366      1.591432
O       1.69600      3.91933     14.64072         1.639308      0.646178      0.762448
O       2.08321     15.57953      2.47546         0.148196      0.275516     -0.507818
O       2.17968     15.50629     14.73919        -0.788726      1.113511      0.893708
O      13.86401      3.86151      2.41945        -0.628814     -1.472644      0.002387
O      13.66247      3.82213     15.07046         0.572393     -1.432401      0.080030
O      13.62560     15.41893      2.49389        -0.450136      3.364426      0.877654
O      13.99834      0.00419     14.88336        -1.336134     -1.613354     -0.401304
O       1.95642      3.88369      6.72230         1.068770     -3.462629     -0.143041
O       1.74136      0.02195      6.49787         1.367530      0.190510      0.604714
O      13.42160      3.72408      6.75164        -0.262970      0.270765      0.556827
O      13.72916     15.45783      6.70215         0.571781      1.097863     -0.065516
O       2.08884      3.74757     10.67946        -1.072070      3.454728     -0.276961
O       2.14847     15.33705     10.85159        -0.906628      1.031668     -1.238567
O      13.53811      3.91457     10.70048         0.948321      0.177088     -0.093827
O      13.60042     15.56774     10.84871        -0.121024      0.244087     -0.333006
O       2.01477      7.76501      2.41974         0.395284     -1.653204      0.298393
O       1.86146      7.81238     14.77195        -0.141792     -0.282843      0.549114
O      13.66622      7.61088      2.28453         0.224732      0.429680      0.587036
O      13.69083      7.56516     15.15550        -0.554253      1.426658     -0.692196
O       2.01086      7.87291      6.34518         0.424199     -0.863747      0.282494
O      13.72326      7.71135      6.45125        -0.148771      0.854565      0.199531
O       1.85455      7.90672     10.91575        -0.115508     -2.031815     -1.386809
O      13.64696      7.67729     10.94792         1.233891      0.267769     -0.685598
O       1.76591     11.50183      2.61442         0.718452      1.528135     -0.504727
O       1.94676     11.68847     15.05348         0.598739     -2.327552     -0.465040
O      13.64178     11.67750      2.27684         0.158067      1.038098      1.188676
O      13.76222     11.59017     14.94973        -1.127088      2.969262     -0.048974
O       2.05030     11.62321      6.44511         0.119126      0.214350     -0.474446
O      13.55574     11.59355      6.41440         0.287028     -0.629975      0.101640
O       1.80850     11.51492     10.67530        -0.467730      0.977258      0.131954
O      13.71927     11.67687     10.62579         0.122424     -0.842367      1.111667
O       5.97484      3.73251      2.53766        -0.453167      1.280330     -0.380956
O       5.61094      3.92528     14.64482         0.251839      1.005798      1.148148
O       5.69961     15.42440      2.42761         0.910273      1.619372     -0.399230
O       5.85426      0.04334     14.64424        -0.065311     -1.599379      1.228559
O       5.70642      3.86175      6.47322         0.153958     -0.481463     -0.091792
O       5.93933     15.53788      6.50239        -0.013243      0.840887      0.606431
O       5.73340      3.82039     10.62093         0.044906      2.193550      0.773024
O       5.48773     15.54565     10.82728         1.954950      0.274905     -1.033657
O       6.25204      7.60865      2.07442        -0.821472     -0.642219      0.622397
O       6.25421      7.90820     14.82538        -1.791691     -0.352968      0.138795
O       6.06637      7.75864      6.79316        -1.017735     -0.649073     -0.437385
O       6.03304      7.73817     10.56834        -0.269556      0.282008      0.060512
O       5.65768     11.58496      2.29858         1.776218      0.581578     -0.550500
O       5.88210     11.65300     14.79123         0.438050     -0.271651     -0.244715
O       5.62148     11.69140      6.43311         0.390739     -0.067064      0.421260
O       5.86052     11.65964     10.84505         0.078005     -0.161025     -0.064116
O       9.68975      3.85526      2.16341         1.104307     -0.275563     -0.414609
O       9.99803      3.58383     15.42667        -1.964389      1.760797     -2.171730
O       9.63493     15.50658      2.13787        -0.169060     -1.361482      0.327587
O       9.75743     15.50174     14.91789        -0.405239     -0.032531     -0.057731
O       9.99659      3.75919      6.48418        -0.089406      0.531863      0.574556
O       9.60425     15.59758      6.74240        -0.741238      0.565481     -0.661770
O       9.53739      3.87088     10.79806         0.556624     -0.930750      0.559427
O       9.68064     15.54960     10.93108         0.742950      2.137670      0.189540
O       9.99807      7.52301      2.47684        -1.027379      2.138312     -0.272887
O       9.80079      7.66774     14.79626        -0.340419     -0.492512     -0.147749
O       9.49198      7.66302      6.44537         0.549450     -0.021400      0.204104
O       9.52140      7.66739     10.67979         0.437359      1.043676      0.471762
O       9.89321     11.73143      2.21522         0.599033     -1.678718      0.601210
O       9.89509     11.72628     14.79176        -0.163438     -1.368703     -0.071512
O       9.95928     11.73569      6.54557        -0.589555     -0.737926     -0.010102
O      10.00685     11.83059     10.53129        -0.563746     -2.074731      0.226548
