  # total energy = -7842.91277518 
CRSYTAL
PRIMVEC
    15.6080000000000005    0.0000000000000000    0.0000000000000000
     0.0000000000000000   15.6080000000000005    0.0000000000000000
     0.0000000000000000    0.0000000000000000   16.6239999999999988
PRESSURE
2.28704 3.82121 -1.01342 0.42933 0.336607 -0.258366
PRIMCOORD
320 1
Pb       3.46331      3.72856      4.10171        -0.007745      0.665522      1.301814
Pb       3.71390      3.91408      0.16868         0.672917      0.149689     -1.036839
Pb       3.56742     15.54107      4.03119         0.567731     -0.618239      0.711797
Pb       3.99385     15.59268     16.33917        -1.070025     -1.335409      1.171798
Pb      15.32605      3.93178      4.09713         1.084324     -0.410905      0.287381
Pb       0.12745      3.79266     16.32809        -0.031170      0.537124      0.411318
Pb       0.23510     15.40240      4.14411        -0.584458      0.993212      0.349359
Pb      15.49552     15.45871      0.09101         0.053570     -0.623853      0.328638
Pb       3.90923      4.04509      8.33751         0.638026     -0.786466     -0.719652
Pb       3.98646     15.54048      7.93584        -0.473007      0.693510     -0.071417
Pb       0.15340      3.84948      8.58642        -0.049318      0.100727     -1.215048
Pb       0.36750      0.20898      8.78045        -0.358654     -0.509232     -1.383793
Pb       4.10209      3.86086     12.61961         0.204796      0.226189      0.062867
Pb       3.85028     15.39676     12.55542         0.329070      0.814358      0.182035
Pb      15.46550      3.97187     12.31936         0.364718     -0.020899      1.405353
Pb      15.59528      0.15208     12.82542         0.105894      0.002322      0.122199
Pb       3.87882      7.40996      4.30138        -0.642940      0.606280     -0.592881
Pb       3.86792      7.75600      0.03153        -0.389752     -0.256908     -1.022168
Pb      15.41465      7.80669      4.50503        -0.081683     -0.274042     -0.938460
Pb      15.33836      7.83913      0.18180         1.056482     -0.278217      0.235889
Pb       3.69819      7.68000      7.97909         1.279269      1.938140      2.146554
Pb      15.52599      7.69168      8.39483         0.241820      0.550835     -0.208672
Pb       4.13173      7.95825     12.13007        -0.730962     -0.949940      1.549395
Pb      15.45127      7.90532     12.60125         0.835364     -1.290214      0.125067
Pb       4.21388     11.43022      3.79306        -1.099944      2.522399      1.977292
Pb       4.22339     11.42289     16.31771        -1.287932      1.530200      0.897399
Pb      15.36225     11.91858      4.14460         0.607620     -1.575803      0.736402
Pb      15.60377     11.57431      0.22810        -0.282818      1.085729     -0.611406
Pb       4.17929     11.61163      8.28085        -1.189214     -0.515433      0.140216
Pb       0.07246     11.62897      8.82047         0.609039     -0.421848     -1.417648
Pb       3.71417     11.52530     12.25525         0.344189      0.010100      0.124760
Pb       0.04787     11.65505     12.55546        -0.111878     -0.474630     -0.219462
Pb       7.64932      3.83162      4.42469        -0.538789      0.214122     -0.623911
Pb       7.85057      3.94058      0.26608        -1.049712      1.513211     -0.406509
Pb       7.33879     15.60570      4.20853         0.573628      1.327791      0.278623
Pb       7.89948      0.13526      0.25421        -0.660901     -1.779763     -0.535655
Pb       8.12320      3.82809      8.69328        -0.386497      0.412480     -0.707773
Pb       7.77485      0.08822      8.32892         0.144592      0.090523     -0.517707
Pb       7.71401      3.61311     12.70036         0.671971      0.570378     -0.480311
Pb       7.75646      0.00814     12.30013         0.382321     -0.439221      0.711570
Pb       8.04894      7.75179      4.16509        -1.275371      0.985801     -0.955117
Pb       7.94573      7.65444     16.47442        -0.720986     -0.641338      0.985817
Pb       7.78496      7.58640      8.12876         0.102836      0.793766      0.463769
Pb       7.83603      7.57875     12.26026         0.329505      1.676666      1.316661
Pb       7.90857     11.66558      4.32465        -0.345012     -1.649264     -0.128180
Pb       7.73318     11.54635      0.03175         0.403040      0.639786      0.138677
Pb       7.97812     11.80950      8.58370         0.354296     -0.777229     -0.667752
Pb       7.32243     11.58937     12.36126         1.290997     -0.079626      0.203809
Pb      11.66328      3.96205      4.24284         0.429326     -0.719664     -0.505938
Pb      11.53959      3.79362      0.17817         0.169807      0.728045     -0.038391
Pb      11.38874      0.22862      3.85494         4.507820      0.066774      3.032085
Pb      11.30177     15.52625     16.41986         2.684478     -0.715538      1.532424
Pb      11.59378      3.55524      8.22797        -0.836739      0.282865      0.065342
Pb      11.61285     15.40022      8.54103        -0.613131      0.262960     -0.254792
Pb      11.72858      4.21278     12.46165        -0.670702     -1.126042      0.689051
Pb      11.84954      0.17030     12.74902         0.083405      0.258093     -0.314943
Pb      11.90244      8.08450      3.89206        -0.126810     -0.523409      0.525777
Pb      11.21262      7.91256     16.56705         0.892816     -0.868443      1.018980
Pb      11.33108      7.81771      8.00087         0.290712     -0.321070      0.927366
Pb      11.74362      7.96590     12.33616        -0.905739     -0.463333      0.309858
Pb      11.61737     12.16050      4.29718         0.501276     -2.235674      0.613961
Pb      11.48624     11.88264      0.25606         1.087470      0.216127      0.509099
Pb      12.07231     11.77717      8.50328        -1.131237     -0.048652     -0.910698
Pb      11.95202     11.99189     12.72579        -0.057451     -0.447868     -1.206494
Ti       1.90962      1.80019      2.06571        -1.877644     -0.447654     -0.171312
Ti       2.02235      1.87032     14.58068        -0.931702     -0.919031      0.885723
Ti       1.95734     13.29763      2.28687         0.849245      3.486009     -0.388008
Ti       2.05651     13.49612     14.54139        -1.096812      1.141636      3.092271
Ti      13.78064      1.87485      2.07773        -0.876961     -0.618904      1.744110
Ti      13.57628      1.99523     14.77633         1.181972     -0.937540     -1.262847
Ti      13.58441     13.71665      2.50651         0.824213      0.861663     -4.499337
Ti      13.82498     13.53277     14.78063        -0.602796     -0.723363      3.945050
Ti       1.84238      1.93095      6.49807         0.684105      0.690662     -2.253225
Ti       1.96973     13.25936      6.29509        -0.171431      4.373043     -0.380448
Ti      13.71411      1.83453      6.34913        -0.083614      0.043605     -2.252505
Ti      13.67561     13.72140      6.50191         0.834384     -2.204725     -0.945687
Ti       2.11896      2.00098     10.54412         0.105311     -3.701613     -0.400002
Ti       2.14161     13.73208     10.26369        -1.203311     -1.061367      0.159451
Ti      13.66509      1.86033     10.45689        -0.682163      3.376722      0.088307
Ti      13.83041     13.73823     10.37609         0.103923      0.536450      1.432806
Ti       1.75764      5.80347      2.01188        -0.582168     -0.061314      0.123616
Ti       2.04255      5.87488     14.49124        -0.968690      1.098217     -0.348851
Ti      13.62944      5.75023      2.13959        -0.554608      2.363787     -0.360508
Ti      13.50303      5.83681     14.82846        -0.282565     -0.766864     -1.577379
Ti       1.80712      5.89364      6.57405        -0.418744     -2.606887     -3.481647
Ti      13.47938      5.67113      6.31030         0.355950      2.116353      0.121290
Ti       2.17435      5.61788     10.53592        -2.167884      2.260930      1.198403
Ti      13.65091      5.71196     10.36506         0.101910      0.803908      0.941324
Ti       2.02525      9.54544      2.11089        -2.354021      1.497388     -1.148461
Ti       2.00925      9.72577     14.74455         0.001681     -2.062240     -0.661125
Ti      13.67004      9.80579      1.95622        -0.473053     -0.493091      1.347791
Ti      13.70903      9.47956     14.65776        -0.063023      3.420199      0.428947
Ti       1.78030      9.75850      6.19626         0.088758     -0.175493      1.821280
Ti      13.62367      9.59950      6.42765        -0.180364      1.986150     -1.720431
Ti       1.88011      9.65278     10.61997        -0.202179     -0.709141     -3.008060
Ti      13.58722      9.53742     10.35002        -0.098788      2.947092      0.250871
Ti       5.67260      1.97791      2.08220         1.272166      1.042412      1.114460
Ti       5.97126      1.84499     14.74893        -1.317725      1.400675      0.403198
Ti       5.81546     13.67926      2.01196        -1.557642     -1.551900     -1.731596
Ti       5.98195     13.61143     14.57739         0.410348     -0.524519      1.376254
Ti       5.84529      2.12780      6.35752        -0.369100     -0.750540     -0.372771
Ti       5.85251     13.64418      6.22020        -0.269763     -0.039458      0.989081
Ti       5.84847      1.81640     10.35365        -0.344534      2.235475     -1.371523
Ti       5.77749     13.74021     10.25065         0.838889     -1.233032     -0.028236
Ti       5.68046      5.85842      2.16634         2.824417      0.065747     -0.637050
Ti       5.76683      5.88468     14.41820         1.011956     -1.852678     -0.297553
Ti       5.79764      5.91300      6.21930         1.286618     -1.242358      0.081242
Ti       6.04515      5.88788     10.38726        -0.169324     -1.816843     -0.556362
Ti       5.79841      9.63630      1.87393         4.504031     -1.958574      2.080934
Ti       6.08946      9.51579     14.67402        -0.730236      0.868849     -2.300545
Ti       5.71825      9.82031      6.28759         2.360079     -1.075951     -0.475770
Ti       5.87132      9.72559     10.33173         0.882461     -0.589754      2.017462
Ti       9.62450      1.97885      2.09012         0.110131      2.041293      1.603653
Ti       9.69358      1.93521     14.74539         0.734457      1.889919     -3.149715
Ti       9.55674     13.71655      2.50872         0.048725     -1.563950     -3.058823
Ti       9.78290     13.50679     14.59795        -1.745490      1.662394     -1.177179
Ti       9.63231      1.77972      6.13248         1.162598      1.158789      2.626076
Ti       9.75610     13.72338      6.42555        -0.077455     -1.847373      0.389421
Ti       9.80743      1.82026     10.67909         0.157738      0.867667     -0.512224
Ti       9.72564     13.62554     10.65154         1.021404     -0.265971     -0.758890
Ti       9.63975      5.82680      2.29792        -0.236426      1.678615     -1.803356
Ti       9.67081      5.94619     14.44351        -0.500487     -1.466085     -0.210833
Ti       9.68499      5.85372      6.12333        -0.258557     -1.404755      0.912123
Ti       9.89418      5.83959     10.50664        -1.978559      0.282504     -0.975693
Ti       9.83844      9.74110      2.22589        -1.489382     -0.028361     -0.022413
Ti       9.94707      9.85457     14.48175        -1.645080     -0.736170     -1.815139
Ti       9.81216      9.81590      6.23016        -1.697828      1.245065     -0.787899
Ti       9.80573      9.80194     10.51360        -1.017051     -0.529909     -0.730705
O       1.78593      1.90638      0.25657         1.241183     -0.170697      1.100265
O       1.88341      1.58889     12.79970         0.992190      0.426461     -1.418738
O       2.31877     13.39647      0.61222        -0.709840     -0.110591     -2.594800
O       1.79318     13.62413     12.83067         0.261202     -0.287400     -1.563124
O      13.87111      2.00018      0.36232        -0.497215      0.588800     -2.485000
O      13.86226      1.69747     12.83185        -1.002588      0.885014      0.597908
O      13.61860     13.73381      0.50750        -0.239900     -0.432071      0.031706
O      13.75218     13.94098     13.08628        -0.192585     -0.531774     -2.079511
O       1.93188      1.76602      4.57240        -0.216013      1.020225      0.354139
O       1.81565     13.74261      4.43778         0.422409      0.010441      0.532574
O      13.63607      2.12624      4.53536         0.130602     -0.807897      0.554647
O      13.78510     13.62921      4.52157        -0.302054     -0.768434     -0.212828
O       2.04184      2.03737      8.69179        -0.147410      0.265244     -0.394879
O       2.20891     13.47755      8.51696         0.045550      0.059193     -0.717839
O      13.27221      1.96891      8.61799         1.113055     -0.408372      0.257087
O      13.77873     13.60816      8.59953        -0.996890      0.796976     -0.792144
O       1.67355      5.89856      0.19302         1.694544     -0.334382      1.606075
O       1.93295      5.77166     12.72056         0.455433     -0.405943     -1.213673
O      13.99195      5.94896      0.37532        -1.958660     -0.825476     -1.410357
O      13.72165      6.06533     12.99509        -0.260646     -0.993370     -0.632258
O       1.61468      5.75836      4.61543         1.192050      0.339203      1.114582
O      13.43716      6.02587      4.48321         0.869205     -0.591779     -0.379125
O       2.04237      5.54070      8.63813        -0.312074      0.910592      1.985043
O      13.65605      5.59749      8.67938         0.018102      0.299921     -2.191775
O       2.01285      9.60349      0.23493         0.610685     -0.160496      1.239556
O       1.93083      9.95418     12.71340        -0.302831     -0.453243      0.058693
O      13.49972      9.58261      0.19381         0.468305      0.220819     -1.382501
O      13.66699      9.71151     12.75540         0.380812     -0.301741      0.275762
O       1.94306      9.58420      4.49057        -0.178062     -0.701388     -1.691638
O      13.78765      9.68866      4.49441         0.139513     -0.473978      0.669839
O       1.72113      9.99269      8.71347         0.580795     -0.782113     -0.280241
O      13.40826      9.85649      8.54443         0.416631     -0.679212      0.964215
O       5.61140      2.13453      0.30898         0.197203     -0.634804     -0.543088
O       6.10974      1.68384     13.02057         0.158875      0.545261     -2.282088
O       5.62567     13.44254      0.12749         0.170868      0.837399      1.434634
O       5.73196     13.46921     12.76099         0.861937      0.565231      0.090817
O       6.00017      1.99853      4.42493         0.721763      0.020187     -0.157512
O       6.02210     13.84109      4.43788        -0.339436     -1.029128     -0.306064
O       5.81501      1.90209      8.50957         0.279718      0.126345      1.959871
O       5.48924     13.71091      8.41182         1.263986     -0.028591      1.305829
O       6.00646      5.92983      0.34750        -1.312966      0.156366     -0.854863
O       5.85664      6.07881     12.54579         0.202049     -1.138617      1.314363
O       5.44916      5.69979      4.32949         1.227788      0.479170      2.104200
O       6.07575      5.81780      8.49109        -0.592524     -0.210890      1.316785
O       6.06144      9.49286      0.04458        -0.796330      0.261770      1.707992
O       6.04311      9.68917     12.68922        -1.343563     -0.249482      0.085068
O       5.75761      9.90223      4.52556         0.353301     -0.662728     -0.646635
O       5.92576      9.81241      8.67399        -0.291523     -0.333713     -3.482345
O       9.73900      2.08197      0.29631         0.483828     -0.491567     -1.592178
O       9.62544      2.05736     12.81603        -0.610844     -1.209961      0.320004
O       9.86788     13.97507      0.73534         0.923341     -0.412558     -2.289656
O       9.65798     13.67305     12.80206         0.360989     -0.850323      0.333051
O       9.49390      2.27297      4.47807         0.349947     -0.281253     -2.298992
O       9.76909     13.64259      4.37497        -0.588506      0.190050      2.213899
O       9.87152      1.62760      8.71856         0.568835      0.692592      0.471280
O       9.89855     13.74126      8.69124        -0.433415      0.526208     -0.707052
O       9.55129      6.07262      0.16286         1.053101     -1.371939      0.117334
O       9.80778      5.88372     12.55344        -0.378376     -0.049112      1.466897
O       9.70473      5.79285      4.29082        -0.085174     -0.366767     -0.228001
O       9.54331      6.04356      8.65241         0.723738     -0.614514     -0.103079
O       9.68551      9.89881      0.35595         0.860183     -0.672129     -0.289114
O       9.89190      9.91688     12.59544         0.017103     -0.194845      2.132950
O       9.81108      9.93739      4.34063        -0.591582     -0.285335      0.972384
O       9.64961      9.47605      8.60790         1.003210      1.045997      0.024658
O       3.84899      2.07582      2.60419        -0.375684     -0.598586     -1.563580
O       4.06728      1.68372     14.68392        -1.453195      0.001008      0.239166
O       3.87434     13.69323      2.61361         2.125230     -0.592105     -0.068851
O       3.87325     13.82874     14.62341        -0.074571     -0.712702      0.253065
O       0.02965      1.86984      2.46032        -0.285888      0.193975      0.076783
O       0.12695      2.14996     14.67607        -1.388376     -0.612821      0.296046
O       0.00321     13.56432      2.44523        -0.451113     -0.136051      0.127391
O      15.58412     13.47027     15.24468         1.321298      0.696849     -0.967003
O       4.09008      1.88754      6.27744        -2.301643     -0.086656      1.004451
O       3.88182     13.82765      6.26491         1.462771     -0.062535      0.354059
O      15.55368      1.90942      6.67044        -1.000415      0.808016      0.562641
O       0.21328     13.25850      6.55903        -2.461796      0.972764      0.394292
O       3.98483      1.68513     10.73119         1.371977      0.733437      0.456735
O       3.93943     13.96999     10.73526         0.748292     -1.718392     -0.089513
O       0.13041      2.20942     10.60262        -1.667973     -1.112400     -0.330280
O       0.15003     13.81154     10.35351        -0.532759     -0.306296      0.814417
O       3.90116      5.88228      2.23178        -3.386179     -0.934415     -0.226925
O       3.89752      5.45014     14.56100         1.139755      1.082241      0.894691
O      15.51730      6.17523      2.35375         0.304162     -0.923374      0.742878
O       0.27285      5.68988     14.76550        -2.538404     -0.377220      0.068315
O       3.83023      5.80028      6.75618         0.666339      0.603565     -1.087994
O       0.04352      5.88884      6.80815        -1.794725     -0.006084      0.268660
O       3.89482      5.75885     10.93937         0.832936      0.094916     -1.280638
O       0.09520      5.72024     10.91041        -1.044620      0.181410     -1.714241
O       4.18172     10.29275      1.96421        -3.645215     -2.469713     -0.794846
O       3.94107      9.53779     15.02928         0.518758      0.545050     -0.892491
O       0.07446      9.80959      1.94572         1.112038     -0.892599      1.250247
O       0.06330      9.50782     14.81767        -0.299347      0.365290     -0.181476
O       3.89945      9.72178      6.59210        -1.088173     -0.260161      0.316853
O      15.47103      9.75698      6.60840         2.201139     -0.490672     -0.187669
O       3.80933      9.66882     10.57796         1.803125      0.480685      0.426239
O      15.52779      9.88963     10.55151        -1.405672     -0.310723      1.206182
O       7.72765      2.05603      2.13874         0.482521     -0.843664      0.008537
O       7.90810      1.84991     14.97648        -1.353164     -0.020061      0.727054
O       7.79039     13.84177      1.98432        -1.075343      0.327499      1.571148
O       7.82497     13.54846     15.20440         0.661869     -0.029644     -1.108289
O       7.90714      1.94432      6.70094        -0.341633      0.367227     -0.072235
O       7.81061     13.78874      6.63697         0.552177     -0.930719     -0.132774
O       7.90484      1.93334     10.64299        -1.817132     -0.180240      0.417728
O       7.73693     13.54201     10.51669        -1.197854      0.803713     -0.062916
O       7.72956      6.17491      2.09201         0.852094     -0.406031      1.961159
O       7.78877      6.00909     14.69864        -0.348938     -0.505255     -0.539096
O       7.77850      5.86458      6.28939        -2.721114      0.229780     -0.445304
O       7.86926      6.10577     10.67267        -0.771621     -1.639787     -0.976263
O       7.88800      9.41550      2.45574        -1.153472      1.365270     -0.402897
O       7.87337      9.62712     14.73289         1.353225      0.206081      0.034232
O       7.82752     10.01404      6.31466         0.911795     -0.684950      0.111445
O       7.85071      9.83159     10.57370        -0.475543     -0.387978      0.426583
O      11.79094      2.03782      2.27928        -1.596471      0.370110      0.270755
O      11.70157      1.99285     14.53076        -0.039829     -0.376811      1.213503
O      11.74673     13.71242      2.60692        -1.204739      0.001716      0.291641
O      11.68138     13.48337     14.97775         0.158240      1.025497     -0.265981
O      11.60510      2.06999      6.34079         0.150688      0.356637      0.704190
O      11.73665     13.78459      6.53501        -0.003862     -0.193736      0.378754
O      11.61273      2.17770     11.03039         2.001261     -1.621789     -0.579376
O      11.67235     13.65809     10.80352         0.865533      0.705068      0.009529
O      11.49898      6.10831      2.25199         3.033347     -2.336071     -0.289693
O      11.53133      5.89254     14.73678         2.698670     -0.223546      0.918102
O      11.59561      5.71969      6.48976         0.535535     -0.158962      0.182996
O      11.66826      5.74677     10.71522         3.204313      0.549892     -0.322752
O      11.76160      9.92145      2.42731        -0.887828     -0.199788     -0.445287
O      11.74270      9.63823     14.80079         0.282056      0.263978     -0.362601
O      11.70069      9.64003      6.16004        -0.928156     -0.746184      1.570181
O      11.70361      9.88072     10.78613         1.303010      0.169634     -0.597663
O       1.63555      3.85988      2.39854         1.484992      0.944091     -0.464218
O       2.18263      3.63002     15.03379         0.206905      1.351647     -0.647567
O       1.86197     15.51267      2.32033         0.540294      1.654500      0.372386
O       1.59903     15.44371     15.02051         1.476511      0.057214     -0.885275
O      13.53238      3.93152      2.35112         0.457934      0.564226      0.233293
O      13.49700      3.93258     14.94675         0.347699      0.185491      0.350187
O      13.59246      0.00925      2.30670         0.220169      0.182338      1.027780
O      13.64453      0.15096     15.15107         0.268981     -0.548369     -0.740255
O       1.91583      3.89424      6.80282         0.255691     -0.433151     -0.638423
O       1.70094      0.18314      6.67256         0.994482     -2.135059      0.959798
O      13.95249      3.97613      6.15642        -1.060806     -0.992688      1.586870
O      13.76239     15.45422      6.28380         0.153031      2.506071      1.175677
O       2.21109      3.67081     10.89620         0.059095      4.388086      0.391910
O       2.10602     15.59539     10.32253        -0.952258     -0.127745      0.632176
O      13.61784      3.92652     10.61559         0.281575     -1.173727      1.212313
O      13.78162      0.18414     10.78917        -0.389114     -3.113436     -0.462096
O       2.11648      7.68760      2.35935         0.187571      1.731540      0.025730
O       2.20273      7.80474     14.67450        -0.317772     -1.398155      0.105071
O      13.58618      7.96178      2.28517         0.278199     -1.352468      0.582132
O      13.79255      7.69962     14.78462        -0.163246      0.250906      0.898603
O       1.79450      7.82449      6.72014         0.399803      0.021806     -0.017881
O      13.65853      7.68280      6.68875         0.198189      0.194636      0.113768
O       1.85604      7.78112     10.45289         0.356273     -0.689321      0.721295
O      13.55176      7.82749     10.31565         0.197527     -2.315073      1.025394
O       2.05140     11.59544      2.57675        -0.510600     -3.791549      0.379799
O       2.06059     11.54199     14.88250        -0.073782      2.267339     -0.319361
O      13.64799     11.63398      2.16186         0.419418      1.689447      1.048504
O      13.92242     11.60636     15.04168        -1.249583      0.004210     -1.337329
O       2.06931     11.59196      6.12082         0.831603     -2.599659      0.397711
O      13.59517     11.61014      6.70497        -0.727548      0.937068     -0.349519
O       2.10568     11.61605     10.58411        -0.306930      2.648813      1.065955
O      13.72807     12.02462     10.84357         0.138504     -1.137493      0.231465
O       5.92281      3.99837      2.28004        -0.192266     -1.496502      0.161004
O       5.83076      3.89612     14.74654         1.092662     -1.312249     -0.364600
O       5.75941     15.57756      2.08753         0.362207      1.586018      0.492998
O       5.87716     15.42494     14.96915         1.072511      1.037191      0.010957
O       5.67545      3.98008      6.56040         0.982288      0.234463     -0.375719
O       6.09949      0.17663      6.59535        -0.543162     -2.188654     -0.578017
O       5.98420      3.89748     10.73181        -0.436649     -0.751707      0.061607
O       5.98531     15.57259     10.63811         0.356045     -0.103951      0.014406
O       5.47233      7.87678      2.70707         0.572309      1.268842     -1.683818
O       5.78606      7.64704     14.65151        -0.502903      1.387064      0.778181
O       5.89355      7.81669      6.57342        -0.945316     -0.454288     -0.727458
O       5.84718      7.72312     10.57035        -0.344324      1.512045     -0.267122
O       6.03128     11.72491      2.14025         0.829400      0.023033      0.734296
O       6.09134     11.47857     14.81910        -0.871731      1.207781     -0.192685
O       5.94346     11.67117      6.53383        -0.970057      2.623552      0.254838
O       5.85004     11.66927     10.37393        -0.876882      1.433435      0.940089
O       9.64243      3.96091      2.22819         0.317616     -0.831656     -0.125053
O       9.65038      3.92362     14.62056         0.119010     -0.525983      1.253868
O       9.86764      0.22023      2.51316        -3.204654     -0.903743     -1.929009
O       9.71949     15.49513     14.79111         0.219592      0.765761      0.344548
O       9.39741      4.12916      6.71085         1.368650     -1.995561     -0.298848
O       9.73024     15.53499      6.24695         0.065581      1.108919      0.266262
O       9.76641      3.92614     10.70875        -0.727412     -0.475607     -0.717643
O       9.61793     15.54443     10.83429         0.693393      0.743684      0.184591
O       9.90720      7.77131      2.28940        -0.655056      2.433319      0.604594
O       9.82123      7.83341     14.63320        -0.150487      1.181243      0.209158
O       9.41848      7.69345      6.30877         1.768953      2.199201      0.663226
O       9.96870      7.74755     10.70526        -0.010659      1.974196      0.510757
O       9.63139     11.77457      2.40538         0.059803      0.675270      0.116108
O       9.96670     11.70201     14.97001        -1.045432     -1.031305     -0.217383
O       9.96496     11.74054      6.64439        -0.547887      0.166593     -0.496747
O       9.59183     11.80719     10.63326         0.684017     -1.529214     -0.356725
