  # total energy = -7840.40141930 
CRSYTAL
PRIMVEC
    15.6080000000000005    0.0000000000000000    0.0000000000000000
     0.0000000000000000   15.6080000000000005    0.0000000000000000
     0.0000000000000000    0.0000000000000000   16.6239999999999988
PRESSURE
4.89067 5.58343 4.31293 -0.055397 -0.28741 -0.283572
PRIMCOORD
320 1
Pb       4.04764      3.93629      4.19044        -0.290530      0.348290      0.277363
Pb       3.98423      3.75593     16.61030         0.449744      1.038926     -0.416078
Pb       4.08380      0.01347      4.11452        -1.312659      0.416638      1.581879
Pb       3.91555      0.11242      0.15424         0.093679     -0.886887      0.058672
Pb       0.15300      3.86640      4.16980        -0.007498      0.882715     -0.098465
Pb       0.02912      3.87007      0.04566        -0.784982      0.343726      0.360477
Pb      15.53132      0.04215      4.12240         0.283783     -0.845460      1.037255
Pb       0.01267      0.04522     16.60333        -1.007828     -0.790692      0.973065
Pb       3.95754      3.80942      8.21640        -0.320192      0.293369      0.947672
Pb       3.91077      0.01986      8.51682        -0.355354     -0.911391     -0.460658
Pb      15.58351      3.78531      8.31855        -0.081488      1.605701     -0.639927
Pb      15.42902     15.56581      8.20348         0.018689     -0.832619     -0.451394
Pb       3.77321      3.84836     12.34067         0.079118      0.682746      0.247838
Pb       3.84705      0.18795     12.39553        -0.276457     -0.651710      0.428771
Pb       0.10721      3.90071     12.41410         0.648219      0.310704      0.288496
Pb      15.38705     15.43719     12.16438         0.848173      0.763025      0.795949
Pb       3.90550      8.02957      4.13670         0.293608     -1.629230      0.759228
Pb       3.97488      7.87752     16.59064        -1.290888     -0.482364      1.260515
Pb       0.07122      7.73520      4.13685        -0.274420      0.190670      0.166478
Pb       0.02112      7.99093     16.52371         0.389465     -0.238425      1.021014
Pb       4.03227      7.86707      8.48717         0.141770     -0.878243     -0.282140
Pb       0.02485      7.79586      8.42020        -1.027713     -0.284615     -0.514804
Pb       3.84644      7.65734     12.59899         0.364826     -0.487835      0.240322
Pb      15.59107      7.69138     12.45207        -0.199174     -0.561261      0.826560
Pb       3.79659     11.84507      4.38456        -0.825975      0.044904     -0.422707
Pb       3.67866     11.76928      0.14253         0.048734      0.090674     -0.410570
Pb       0.10317     11.64217      4.11438        -0.155432     -0.020957      1.066336
Pb      15.49819     11.64211     16.49039         0.205896      0.121240      0.065211
Pb       3.84307     11.57651      8.22508        -1.141492      1.870553      3.483393
Pb      15.53107     11.64217      8.20899        -0.395653      0.008947      1.005519
Pb       4.20721     11.79911     12.42401        -2.374626     -0.561767      1.820896
Pb      15.44669     11.72570     12.46919         0.045890      0.438577     -0.338697
Pb       8.00359      3.92042      3.85189        -1.218043      0.503224      1.558585
Pb       7.83129      3.94652     16.48345        -0.325766     -0.341544      1.163025
Pb       8.08202     15.58408      4.09724        -0.377909     -0.054792      1.233251
Pb       7.67440     15.42897     16.54268         1.620729      0.048243      1.671377
Pb       7.60020      3.98594      8.03276         0.809409     -0.468891      2.810900
Pb       7.73079      0.01244      8.32121         0.380722      0.353322      0.160406
Pb       7.83847      3.91006     12.40859        -0.063434     -0.223748      0.213174
Pb       8.02846      0.17575     12.55673        -0.961805     -1.004645     -0.264869
Pb       7.67291      7.83815      4.10038        -0.748929     -0.836324      0.020574
Pb       7.68664      7.85266      0.10863         0.534949     -0.070638     -0.251938
Pb       7.72521      7.92704      8.27146         0.067088     -0.379715      0.360566
Pb       7.75321      7.95808     12.45036        -0.231610     -1.025809      0.803930
Pb       7.73255     11.76482      4.05756         0.095070     -0.170058      0.549401
Pb       7.89142     11.97713     16.56604        -0.037585     -3.273173      1.615362
Pb       7.67748     11.54833      8.07055         0.675660      0.167551      2.102331
Pb       7.84885     11.52668     12.58858        -0.242274      0.538376     -0.071443
Pb      11.46953      3.85206      4.02422         0.909661     -0.634593     -0.083470
Pb      11.74959      3.78220     16.55077         0.140701      0.662552      0.966390
Pb      11.66873     15.50384      4.22604         0.097537     -0.897214      0.198613
Pb      11.85903     15.60465      0.13995         0.548996     -0.106786     -0.135222
Pb      11.57121      4.00755      8.43874         3.057913     -2.764917      0.084658
Pb      11.62253      0.11205      8.17203         0.663063      1.327835      2.097945
Pb      11.59650      3.65620     12.37020         0.547667     -0.065919      1.474397
Pb      11.60095     15.39504     12.36849        -0.235945      1.502541     -0.149885
Pb      11.37333      7.64634      4.16924         1.969583      0.588849      0.420223
Pb      11.84680      7.86420     16.56501        -0.755546     -0.804803      0.660904
Pb      11.81512      7.66292      8.56587         0.371310      0.251832     -1.078131
Pb      11.62259      7.74771     12.53377        -0.203901     -0.352306      0.559556
Pb      11.50320     11.54411      3.94551         0.757404      1.163457      2.289806
Pb      11.81282     11.51268     16.38451        -0.686786      1.076083      1.194792
Pb      11.44171     11.69046      8.25308         1.182388     -0.372892      0.251588
Pb      11.75003     11.61421     12.39614        -1.058044      0.404694      0.656431
Ti       2.08758      1.94312      2.09646         1.099650     -0.285727      4.473041
Ti       1.87314      1.97750     14.79755         0.220102     -3.130607     -1.338201
Ti       1.89507     13.74175      2.23932        -0.106305     -0.251043      0.501814
Ti       1.96151     14.00730     14.32450         1.227896     -6.095991      0.647366
Ti      13.78583      2.15740      2.23603        -2.871511     -0.423369     -0.705284
Ti      13.65546      1.92581     14.76029        -0.626519      0.117158     -0.254775
Ti      13.71976     13.67188      2.15981        -0.647788      0.671458     -1.129305
Ti      13.82183     13.75614     14.37236        -3.695682      0.742176      3.631124
Ti       1.85438      1.98273      6.48462         1.505064     -0.449363     -2.676078
Ti       2.01187     13.65556      6.56972        -0.499347      1.041165     -0.287308
Ti      13.48010      1.97160      6.07691         1.027599     -1.454356      0.115697
Ti      13.55033     13.51531      6.44539        -1.465792      0.595421      0.937158
Ti       1.89923      1.96335     10.24251         0.742037     -0.343383      1.742070
Ti       1.81391     13.59135     10.63386         0.789707      1.480605     -2.401729
Ti      13.86010      1.99009     10.54331        -4.528316     -0.031230      0.400861
Ti      13.37658     13.71543     10.45053         2.416828     -0.942788     -1.344686
Ti       2.04751      5.84097      2.06243        -0.852683      0.400577      1.703332
Ti       1.86897      5.87280     15.00105         1.992915      0.485897     -1.951104
Ti      13.53629      5.91703      2.32085         1.225025      0.764683     -0.160598
Ti      13.67754      5.82264     14.85471        -0.851704      1.556834      0.345929
Ti       2.15471      5.91900      6.65194        -0.229674     -0.452487      0.847218
Ti      13.68975      5.70950      6.26909         1.430330      1.389680      0.680953
Ti       1.94152      6.00865     10.43380         0.708001     -4.973100      0.808006
Ti      13.54841      5.87475     10.70884         0.734069     -1.375172     -1.237701
Ti       2.05256      9.76288      2.32113        -0.357805     -0.064008     -1.389872
Ti       2.16572     10.05458     14.71715        -1.912602     -1.827016     -1.731381
Ti      13.56000      9.95692      2.25548         1.699848     -1.435570      0.570077
Ti      13.56489      9.69988     14.58303         1.102728     -0.778084      0.713988
Ti       1.88927      9.73195      6.65132        -2.245156     -2.669183     -3.816524
Ti      13.56921      9.56479      6.34385         0.818469      0.717254     -1.270808
Ti       1.64596      9.97150     10.86954         3.766654     -0.635150      1.078265
Ti      13.37421      9.78612     10.59336         4.033654     -0.907905     -0.775478
Ti       6.14285      1.81184      2.31106        -0.700424      1.817110     -0.090594
Ti       5.95719      1.69868     14.85706        -1.803854      1.861858      0.763070
Ti       5.76736     13.68107      2.27615         1.733768      0.227495      0.096240
Ti       5.77937     13.49081     14.90752        -2.729449      1.512554     -3.200576
Ti       5.81644      1.89863      6.17720        -1.308098      0.307860      2.335664
Ti       5.90085     13.62216      6.47030        -1.436454      0.124692      0.401009
Ti       5.68356      1.86244     10.42191         0.859050      1.644327     -0.437239
Ti       5.79467     13.49090     10.76511         0.023302      2.162214     -1.367731
Ti       5.91534      5.68428      2.13427        -1.101797      1.789514      1.434579
Ti       5.82516      5.76756     14.75129        -0.901598      2.333448     -1.622967
Ti       6.05023      5.83091      6.44071        -0.564491      1.022473     -2.206740
Ti       6.05743      5.80266     10.56739        -2.533749     -0.838738      1.846504
Ti       5.90080      9.94654      1.99823        -0.175418     -1.528774      0.608801
Ti       5.95141      9.72045     14.76027        -0.733052     -0.601916     -0.687084
Ti       5.75961      9.88498      6.31466         0.243331     -3.933582      0.296389
Ti       5.63711      9.55330     10.62201         1.381778      0.337103      0.215159
Ti       9.86169      1.76100      1.94820        -1.605039     -0.832803     -0.941455
Ti       9.67425      1.85966     14.73270         1.613645      0.638349     -0.391564
Ti       9.75081     13.44045      2.10718        -0.196140      1.733989      0.642183
Ti       9.79425     13.72066     14.69351         0.356254     -0.233970      2.273815
Ti       9.63048      2.11495      6.39790        -0.534204     -3.501865     -0.180976
Ti       9.67835     13.65359      6.47477         0.496885      1.298342     -1.745984
Ti       9.70880      1.86861     10.57061         1.166939     -0.387072     -1.503322
Ti       9.50718     13.43275     10.57825        -0.312218      2.233418     -0.492016
Ti       9.79843      5.69077      2.00837        -1.187766      1.543427     -0.531181
Ti       9.71298      5.88875     14.92867         1.065692     -0.121961     -2.296238
Ti      10.00619      5.84365      6.16676        -1.904775     -0.610883      1.002279
Ti       9.82323      5.83703     10.57647        -0.136464     -0.070180      0.345561
Ti       9.82146      9.58177      2.28180        -2.232819      0.165111     -2.569818
Ti       9.74567      9.72009     14.57610        -1.079711     -0.993584     -1.781009
Ti       9.82156      9.58547      6.48746         1.214281      0.445734     -0.536205
Ti       9.68418      9.68508     10.53438        -1.054516     -0.705312     -0.436470
O       1.85148      1.30839      0.52523        -0.039883      1.369160     -1.190041
O       1.80636      2.02496     13.07181        -0.044352      0.467807     -1.550484
O       1.86135     14.16035      0.45604         0.401618     -1.499491      1.202383
O       1.68973     13.99092     12.54879         0.213901     -0.546680      0.720962
O      13.35444      2.07363      0.38966         1.241279     -0.484983      0.137460
O      13.78986      1.70875     13.03970        -0.295244      0.703383     -0.932179
O      13.70660     13.34054      0.37991        -0.199846      1.028006     -0.001000
O      13.59650     13.68740     12.67484        -0.290884     -0.378690     -0.858508
O       2.05561      2.19426      4.60251        -0.363447     -0.615651      0.286141
O       1.66698     13.34323      4.65279         0.867801      0.150184      1.272737
O      13.47011      1.78780      4.21847        -0.041429      0.723948      1.177421
O      13.42863     13.51754      4.73384        -0.116812      0.303742     -2.810390
O       1.91109      1.98773      8.48579        -0.473910     -0.172812      0.317226
O       1.93672     13.40194      8.46271        -0.786713      0.167399      1.612711
O      13.93456      1.63472      8.86406        -0.772492      1.302091     -1.099832
O      13.41912     13.86343      8.68388        -0.214953     -0.803144     -0.186680
O       2.19717      5.68606      0.33022        -0.585808      0.287007      0.106068
O       1.97279      5.44710     13.24386        -0.630979      0.249151     -0.800199
O      13.64737      6.12495      0.55459        -0.192040     -0.576968     -0.196787
O      13.78645      6.04125     13.13145        -0.121085     -0.544630     -1.233927
O       2.24886      5.90726      4.96871        -0.602363     -0.300203     -2.357397
O      13.81370      5.44411      4.52723        -0.495323      2.015121      0.482051
O       1.65812      5.83532      8.74344         1.021340      0.131501     -0.865887
O      13.41114      5.75304      8.92160         0.031224      0.527685      0.395474
O       2.25991      9.69874      0.48893        -1.077378      0.811402      1.160753
O       2.34724      9.91173     12.87327        -1.141544     -0.366990      1.246469
O      13.26434      9.73796      0.43380         1.512118      0.551450      0.347368
O      13.42541      9.64162     12.84973         0.231502      0.294251     -0.551066
O       1.99344      9.75945      4.68516         0.077444      0.181151      0.136883
O      13.65301      9.70601      4.45952        -0.466747      0.237305      0.673366
O       1.42012      9.89393      9.20331         0.844583     -0.491834     -3.884044
O      13.62803      9.49507      8.85485        -0.205642      0.632176      0.527266
O       6.33036      1.50763      0.59362        -1.336532      1.838999     -1.065353
O       5.58031      1.87649     13.24709         0.255270     -0.130303     -3.162173
O       5.53739     13.76647      0.54942         0.829598     -0.121322     -1.887302
O       5.57489     13.72357     13.00998         1.274970     -0.317277      0.166670
O       5.74260      2.02659      4.43589         0.626757      0.479897      0.269280
O       5.85376     13.26978      4.77583        -0.205303      0.279581     -1.831929
O       5.47621      2.02557      8.65196         1.794950     -1.144889      0.945815
O       5.73155     13.69211      8.98486         0.481752     -0.482654     -0.858506
O       5.78622      5.92083      0.43381        -0.047109     -0.305773     -1.285618
O       5.79892      6.22395     12.89926         0.172339     -1.804450      0.937168
O       6.03955      5.66517      4.65911        -0.575877      0.191735     -0.355771
O       6.21564      6.08903      8.87897        -0.370322     -0.504614     -1.515091
O       5.96344      9.95110      0.16735        -0.086716     -0.941551      2.376335
O       5.90524      9.64697     12.75512        -0.215942     -0.048649      1.467316
O       5.57158      9.95338      4.56945         0.899381     -0.031226      0.732225
O       5.88071      9.34341      8.76640        -0.120216      1.111378      0.297931
O       9.68138      1.52759      0.13984         0.167774      0.940086      1.878856
O       9.81209      1.77797     12.78333        -0.950279      0.172230      1.069718
O       9.53058     13.57147      0.31141         1.363488     -0.126387      0.562087
O       9.45230     13.51790     13.07513         0.020164     -0.004166     -2.813598
O       9.53567      2.16077      4.58901         1.127311     -0.578637      1.162998
O       9.67937     13.93340      4.62392         0.469559     -1.923797      0.950146
O       9.68747      1.79704      8.65880        -0.202254      0.433180      1.236152
O       9.48063     13.48413      8.81053         0.066728     -0.099599     -1.145354
O       9.62715      6.26742      0.26335         0.100572     -1.685573      1.202375
O       9.92332      5.29971     13.16660        -1.285051      1.481668      0.451087
O       9.60805      5.79354      4.37551         0.877357     -0.586722      0.665272
O      10.28766      5.52351      8.88418        -2.956142      2.647487     -0.177727
O       9.45413      9.93048      0.49847         1.264280     -1.354690      0.781018
O       9.82698      9.48693     12.43536        -0.544924      1.252292      3.610752
O       9.81561      9.73009      4.56954         0.190048     -0.881020      0.576254
O       9.82072      9.63436      8.51604        -0.577141      0.684726      1.082120
O       4.06210      1.68236      2.27640        -2.545283      0.272411     -0.299778
O       3.72212      1.63993     15.01580         1.108156      0.588513      1.150533
O       4.03602     13.79610      2.62719        -2.314292     -0.057241      0.579631
O       3.72912     13.63782     14.66922        -0.477103      1.073126      0.978925
O      15.45695      1.64894      2.49401         3.346039      1.550038     -0.649518
O      15.47411      1.91467     15.18723         0.578287      0.991301      0.287708
O      15.55208     13.38528      2.49189         0.976920      1.331315     -0.196419
O      15.40702     13.12435     14.47804         2.802950      1.440611      1.185987
O       3.91540      1.92746      6.71585         0.399974     -0.423062     -1.114595
O       3.83676     13.77828      6.72174         1.178472     -1.406086     -0.645585
O      15.57673      1.76231      6.54578        -0.587864      1.082898     -0.290461
O      15.28012     13.44753      6.82699         2.335505      0.329124     -0.730046
O       3.73381      2.01603     10.66079         0.885724     -0.474920      0.636027
O       3.66807     13.53456     10.87599         1.886841     -0.143850      0.052779
O      15.59861      1.83072     10.86393         1.815288      0.540351     -0.026644
O      15.45757     13.41946     10.66188        -0.398878      0.957755      0.221665
O       3.78292      5.78801      2.53379         0.452801     -0.142893      0.191805
O       3.98284      5.57252     15.03892        -1.458417      0.661102      0.357369
O       0.06202      5.79843      2.63700         0.883245      0.606974     -0.303514
O       0.01050      5.88778     15.27669        -0.196012     -0.617808      0.010529
O       4.26979      5.82984      7.04554        -2.990903      0.919305     -0.281503
O      15.50991      5.86507      6.97656        -0.110554     -0.770606     -1.206479
O       3.89701      5.55523     10.75098        -0.450985      1.361678     -0.067367
O      15.54467      5.69485     10.85212         0.497335      0.438339      0.504778
O       4.07004      9.57569      2.57988        -0.588412      1.666757     -1.638151
O       3.86650      9.79689     15.17050         1.463276      0.243305     -0.495446
O       0.05138      9.87810      2.36183        -0.193979     -0.148644     -0.079942
O       0.07988      9.61747     15.00258        -0.293358      1.492875     -0.595594
O       3.68158      9.71554      7.02906         3.091251     -1.550003     -0.690794
O      15.50212      9.68985      6.68318         0.553841      0.346318      0.405555
O       3.93569      9.94417     10.73542        -0.824466     -0.696885     -0.465205
O      15.56164      9.70518     11.28738        -2.092331     -0.176492     -0.163861
O       8.14832      2.01301      2.59939        -3.689216     -1.138905     -0.744556
O       7.77063      2.05286     14.88699         0.566523     -0.079698     -0.077746
O       7.73631     13.67960      2.57898         0.949514     -0.669218     -0.252288
O       7.56923     13.55608     15.12495         1.427033      0.765930     -1.654027
O       7.61162      2.07680      6.90635         0.778497     -0.736493     -1.851191
O       7.76074     13.32510      6.63883        -0.137254     -0.030125      0.318680
O       7.74213      1.86386     10.89808        -0.103570     -0.362402     -0.267880
O       7.66552     13.60192     11.07607        -0.048856      0.035978     -0.285421
O       7.75673      5.73967      2.21340         1.111973      0.095335      0.539753
O       7.63635      6.21152     14.84942         2.770794     -0.913804      1.031554
O       8.02580      5.61591      6.59147         0.271450     -0.013678     -0.001686
O       7.95517      5.76953     10.82258        -0.896688     -0.364656      0.728174
O       7.74432      9.49700      2.52885        -0.745709      0.997535     -0.156838
O       7.80379      9.57986     14.74063        -1.851995      0.082017     -0.009531
O       7.71583      9.82063      6.57971         0.004969     -0.133944     -0.546876
O       7.85925      9.49812     10.67176        -0.850657      0.697232     -0.248810
O      11.52877      2.32435      2.11699         1.836608     -0.927324      1.486630
O      11.52222      2.09383     14.89955         1.757746     -0.743898      0.107970
O      11.58237     13.81751      2.44824         0.061769     -1.648589     -0.581998
O      11.62573     13.71397     14.75335         0.592140     -0.545306      0.319412
O      11.74387      1.63650      6.42201        -1.779218      0.986636     -0.197764
O      11.48520     14.11467      6.83044        -0.797391     -3.543963     -1.753762
O      11.63871      1.69910     10.84378        -0.119914      0.209438     -0.098448
O      11.63632     13.53304     10.86328        -2.307814     -0.450389      0.286242
O      11.57835      5.71888      2.60017         0.848444     -0.484442     -0.455062
O      11.65372      5.86053     15.16705         0.691566      0.972645     -0.322955
O      11.86267      5.89948      6.72527        -1.637685     -0.317205     -0.807143
O      11.55894      5.86024     11.13227         2.309569     -0.057267      0.273777
O      11.68567      9.89006      2.42721        -0.896564     -0.790185      0.045073
O      11.53488      9.80334     14.78637         3.012521      0.001388      0.359064
O      11.71526      9.36682      6.78933        -1.992975      0.670350     -0.775706
O      11.66451      9.58730     10.80787        -1.522912      0.236322     -0.402279
O       1.86965      3.79904      2.24090         0.240937     -0.578016     -0.180091
O       1.97406      3.59901     15.35624        -0.582647      3.976310      1.062744
O       2.02318     15.42763      3.06014        -0.904963      1.152165     -1.697617
O       1.60352     15.56247     14.77956        -0.968698      2.772961      1.021613
O      13.77372      4.02895      2.64480        -0.194505     -2.736173     -1.419099
O      13.62266      4.06338     15.14183         0.655143     -2.638542     -0.408660
O      13.69071      0.02238      2.14199        -0.960764     -1.513682      0.498467
O      13.67338      0.02554     15.10470        -0.381494     -1.552245     -0.783469
O       1.99438      3.95761      6.76464        -0.683349     -0.972045      0.240691
O       1.92928     15.53273      6.69410        -0.665587      0.408846     -0.432041
O      13.57874      3.85421      6.49138         0.277342     -2.188216      0.659410
O      13.52758     15.55957      6.46480         1.392255      0.880930      0.407356
O       2.03018      3.80268     10.69429        -2.113829     -0.177681      0.393738
O       2.04435     15.55600     10.49896        -0.890358      1.207157     -0.098579
O      13.39961      3.93865     10.79043         1.206751     -2.137527      0.361505
O      13.51218     15.52521     10.75416         0.549310      0.970128      0.741623
O       1.92443      7.87551      2.66638         0.297238     -0.629751     -0.729805
O       2.02911      7.72743     15.02711         0.166890     -0.348130      0.023253
O      13.32061      7.72527      2.74730         0.828546      0.447157     -0.378953
O      13.76797      7.89644     15.12908        -1.033663     -0.309877     -0.392813
O       1.97656      7.78410      6.80277        -0.255597      0.110244      0.955250
O      13.68883      7.77511      6.76085         0.118609     -1.276569     -0.441673
O       2.05202      7.67989     10.78978        -0.377006      3.312762      0.967132
O      13.74500      7.69139     10.99753        -0.804323      1.345621     -0.178313
O       2.27151     11.86366      2.50411        -0.470389     -1.357951     -0.580612
O       1.95059     11.82937     15.03671        -0.166314      0.109134      0.184174
O      13.57841     11.79888      2.41429        -0.686886     -1.969766      0.590632
O      13.61908     11.48694     15.04661        -0.024308      1.331911     -1.052718
O       2.00630     11.45143      6.80279        -0.701968      3.725209     -0.159669
O      13.27121     11.48855      6.67737        -0.044438      1.285323      0.586189
O       1.82669     11.82312     11.01297        -0.389074     -2.094661      0.379628
O      13.44356     11.66332     10.85224         0.479805     -0.626814     -0.250908
O       5.59345      3.77377      2.35326         1.223929      0.017009      0.018483
O       5.97452      4.03072     15.09799         0.063699     -3.039759     -0.040051
O       5.97401      0.10281      2.85782         0.589548     -2.461855     -0.935112
O       5.80084     15.53872     15.22301         0.243036     -0.934764     -0.898406
O       5.72575      3.90380      6.67791         0.798657     -1.307584     -0.329655
O       5.93622     15.40820      6.48563         0.340469      2.500500      0.344814
O       5.84636      3.78754     10.85223         0.649096      0.757116      0.117339
O       5.43398      0.06510     10.73692         1.072336     -0.560995      0.393033
O       5.82532      7.64521      2.63976         0.265018      0.086691     -0.308242
O       5.62752      7.87679     15.20126         1.157562      0.704639     -1.592237
O       5.98451      7.73439      6.64726        -0.023625      1.260307     -0.459779
O       5.61895      7.64037     10.96999         0.312563      1.650767     -1.100911
O       5.82688     11.77131      2.31324         0.332759     -0.966550      0.476766
O       5.64581     11.69133     15.16409         0.535808     -0.170165     -1.088220
O       5.54413     11.57228      6.84199         1.528525      1.514110     -0.527662
O       5.90351     11.67473     11.00697         0.713263     -1.151372     -1.149393
O       9.59394      3.84695      2.19264         0.951046      0.739033     -0.342478
O       9.82604      3.89839     15.40924        -2.040578      0.354718     -1.307133
O       9.71892     15.45092      2.59326         0.644884      1.380916     -1.690319
O       9.51090      0.01377     14.92227         0.210967     -1.515566     -1.064834
O      10.22254      3.74737      6.58081        -0.974050      2.764659      0.007141
O       9.27893      0.01282      6.63105         0.626542     -0.410361      0.247612
O       9.90732      3.70837     10.90254        -1.269906      0.564771     -0.814266
O       9.67255     15.25991     10.92645        -0.012398      2.306506      0.281699
O       9.88755      7.60386      2.52062        -0.942367      2.057547     -0.488785
O       9.77599      7.99937     15.02724        -0.038603     -3.045691     -0.213538
O       9.72025      7.52155      6.71965         0.080360      1.928048     -0.685286
O       9.78025      7.72540     10.80100         0.229760     -0.944848     -1.012227
O       9.53342     11.47057      2.53255         0.636186      3.005400      0.007382
O       9.45132     11.46580     14.76652         0.280156      3.563172      0.726395
O       9.95177     11.63771      6.55905        -0.523408      0.050090     -0.011375
O       9.59329     11.65438     10.97772         0.745531     -2.034904     -0.317840
