  # total energy = -7878.09073338 
CRSYTAL
PRIMVEC
    15.464    0.0000000000000000    0.0000000000000000
     0.0000000000000000   15.464    0.0000000000000000
     0.0000000000000000    0.0000000000000000   17.350608
PRESSURE
0.395125 0.354454 -6.50461 -0.409821 -0.172337 0.03108
PRIMCOORD
320 1
Pb       4.01949      3.83812      4.45134        -0.435285      0.392964      0.061210
Pb       4.05298      3.75082     17.11295        -0.740866      0.318935      1.248229
Pb       3.80428      0.20619      4.24701        -0.174834     -0.987504      0.855685
Pb       4.02120      0.10784     17.24584        -0.305247     -0.335347      0.991975
Pb       0.16922      3.81663      4.45890        -0.333821     -0.012510      0.291365
Pb      15.39529      3.67126     17.27690         0.157146      0.474876      0.592821
Pb      15.32939     15.43785      4.10794         0.540991     -0.249461      1.163227
Pb      15.39035      0.01320     17.32611         0.124244     -0.501792      0.661850
Pb       3.81792      3.92708      8.57950         0.461937     -0.239814      1.178152
Pb       3.88880     15.36184      8.51659        -0.568811      0.467402      1.583706
Pb      15.37021      3.77014      8.51512         0.454090     -0.109822      1.319560
Pb      15.35383     15.40361      8.57585         0.312803      0.451503      0.406241
Pb       3.73641      3.74727     12.85842         0.525781      0.319853      0.737421
Pb       3.94021     15.29880     13.04040         0.214519      0.255372      0.049962
Pb       0.08423      3.99385     12.91168        -0.296909     -0.384316      0.432487
Pb       0.08994      0.13634     12.91405        -0.493757     -0.315154      1.010543
Pb       3.71879      7.83242      4.19052         0.630462     -0.692918      1.571659
Pb       3.63839      7.64100     17.34319         0.644519      0.125439      0.120775
Pb      15.31410      7.71990      4.21846         0.269028      0.415444      1.342378
Pb      15.40046      7.69974     17.23592        -0.199030      0.104375      0.533928
Pb       3.98591      7.87351      8.63258        -0.364409     -1.390057      1.220412
Pb       0.18954      7.58684      8.78220        -0.807610      0.368907      0.337031
Pb       3.87241      7.68430     12.87592        -0.324674     -0.324937      0.929135
Pb       0.08503      7.88251     12.83611        -0.218297     -0.469815      1.057966
Pb       3.93339     11.68107      4.30899        -0.406480     -0.209561     -0.001731
Pb       3.98153     11.54710     17.28449        -0.582562      0.075459      0.579504
Pb      15.27322     11.66106      4.30256         0.798148     -0.456821      0.333247
Pb      15.46016     11.64619     17.25164         0.156246     -0.355762      0.850973
Pb       3.85794     11.61257      8.72764        -0.546763      0.117377      0.000675
Pb      15.27682     11.55126      8.50810         0.075559     -0.233635      1.089065
Pb       3.81876     11.46513     13.01042         0.339681      0.285006      0.655414
Pb      15.42581     11.71837     12.75665        -0.395402     -0.551817      1.474062
Pb       7.69958      3.77779      4.43408        -0.045062      0.263036     -0.199951
Pb       7.78557      3.85175     17.29884        -0.105205     -0.153342      0.761854
Pb       7.84979     15.43795      4.22353        -0.631436     -0.014022      0.547592
Pb       7.61869      0.05492      0.08714         0.249897     -0.059800      0.064185
Pb       7.82363      3.95901      8.50765        -0.155507     -0.455768      0.720936
Pb       7.75413      0.09001      8.58648        -0.400417      0.279531      0.606174
Pb       7.78223      3.78367     12.95005        -0.188308     -0.106503      0.323048
Pb       7.96430      0.02699     13.10176        -0.764414     -0.436918      0.168468
Pb       7.73030      7.86017      4.29129         0.193247     -0.514931      0.707334
Pb       7.82103      7.72105     17.34088        -0.177772     -0.268717      0.453991
Pb       7.87255      7.66680      8.69155        -0.425965     -0.432265     -0.047307
Pb       7.71432      7.66663     13.00009        -0.154319      0.199661      0.327025
Pb       7.75041     11.66853      4.32171        -0.025840     -0.426804      0.141456
Pb       7.65500     11.45424     17.28624         0.226273      0.685129      0.670221
Pb       7.62723     11.71900      8.49534         0.419333     -0.360669      1.073007
Pb       7.76810     11.46657     12.92181        -0.420120      0.348803      0.749402
Pb      11.37758      3.78601      4.48696         0.810719      0.376940     -0.424131
Pb      11.47626      3.93720     17.32352         0.618982     -0.101462      0.983291
Pb      11.64046     15.35671      4.33857         0.106613      0.169895     -0.453721
Pb      11.53333      0.06507      0.09605         0.384279     -0.318694      0.090694
Pb      11.68006      3.93223      8.77923        -0.471548     -0.108852      0.177867
Pb      11.41632     15.35384      8.45298         0.657183      0.344994      1.342415
Pb      11.63690      3.91557     13.05358         0.164019     -0.239905      0.302516
Pb      11.49888     15.34826     13.14580         0.377267     -0.053454     -0.265690
Pb      11.58303      7.65970      4.19096        -0.116458      0.206071      0.864279
Pb      11.56460      7.62013     17.21143         0.392896      0.366343      0.930073
Pb      11.54926      7.56537      8.77659         0.740692      0.321600     -0.228919
Pb      11.40265      7.63590     13.03714         0.722763      0.517904      0.432125
Pb      11.50383     11.64052      4.28464        -0.007588     -0.625093      0.686936
Pb      11.47885     11.71944     17.23206         0.749850     -0.701167      0.859585
Pb      11.29541     11.53130      8.54253         1.401768     -0.171074      0.812710
Pb      11.59819     11.66198     12.73999         0.258449     -0.051613      1.360228
Ti       1.91647      1.94788      2.38627        -0.616691     -0.648371     -2.462359
Ti       1.94464      1.81163     15.39069        -0.004299      1.217603     -2.436322
Ti       1.94846     13.45761      2.42019        -0.917021      0.192876     -1.953774
Ti       2.00078     13.49617     15.42824        -0.934069     -1.035641     -1.429242
Ti      13.46323      1.98373      2.41605         0.210946     -0.449705     -1.436724
Ti      13.49966      1.88529     15.38456        -0.577091     -0.097399     -0.056889
Ti      13.46445     13.42333      2.33237         0.400116      0.866454     -1.948723
Ti      13.50478     13.49571     15.41099        -0.018094     -0.350576     -1.900808
Ti       1.92740      1.88050      6.77436        -0.892190     -0.425177     -0.599717
Ti       1.87401     13.45787      6.68235        -0.565065      0.457268     -2.066960
Ti      13.39975      1.93532      6.69016         1.313319     -1.106526     -2.679869
Ti      13.43668     13.50271      6.70827         0.132228     -0.661147     -1.011162
Ti       1.95366      1.85223     11.01341        -0.119225      0.275702     -1.902041
Ti       1.93382     13.53754     11.09155         0.692167     -0.074765     -2.075114
Ti      13.50545      1.87740     11.14207        -0.354569      1.054577     -1.442008
Ti      13.48961     13.62415     10.94935        -0.797315     -0.276889     -1.144405
Ti       1.89989      5.76328      2.41233         0.381244     -0.706636     -0.813950
Ti       1.96485      5.72044     15.43727        -0.238247     -0.273492     -2.763855
Ti      13.56248      5.67065      2.44144        -1.356216      0.248761     -2.408192
Ti      13.55641      5.74794     15.40352         0.078395      0.137792     -2.264002
Ti       1.93593      5.80492      6.83995        -0.114802     -0.196625     -2.333526
Ti      13.49674      5.75057      6.65031        -0.382872      0.942377     -0.368390
Ti       1.98329      5.70483     10.97580        -0.328492      1.196931     -1.511336
Ti      13.55024      5.80504     11.13322        -0.362009     -0.215807     -0.919417
Ti       1.88831      9.65014      2.43169        -0.842741      1.064427     -1.210192
Ti       1.91325      9.61920     15.37434        -0.383633      0.390791     -1.858222
Ti      13.45320      9.62869      2.33465         0.372315     -0.233498     -1.949801
Ti      13.49492      9.66373     15.32791        -0.148868     -0.228760     -1.810036
Ti       1.85383      9.61769      6.76014        -0.672559     -0.064539     -1.279459
Ti      13.46606      9.56201      6.79080        -0.611866     -0.672844     -1.227092
Ti       1.94927      9.66636     10.97309        -0.381373     -0.535804     -1.616964
Ti      13.50865      9.62292     11.04102        -0.484387      0.021535     -2.418623
Ti       5.78480      1.92822      2.43059         0.374293     -0.186169     -1.594596
Ti       5.84934      1.95947     15.24957         0.253942     -0.620350     -1.083608
Ti       5.76177     13.53961      2.39659        -0.103406     -0.001937     -1.535902
Ti       5.78602     13.50289     15.43584         0.860465      0.329688     -2.151279
Ti       5.73073      1.87316      6.73606         0.458407      0.648393     -1.262286
Ti       5.72441     13.48968      6.61910         0.351104      0.948946     -1.852798
Ti       5.84327      1.84380     11.09379        -0.093168      0.225031     -2.535168
Ti       5.84609     13.50493     10.99252        -1.027198      0.048387      0.230724
Ti       5.77463      5.81980      2.42427         0.428668     -0.688993     -1.359591
Ti       5.80854      5.80973     15.33203        -0.627317      0.621386     -2.368327
Ti       5.78500      5.78503      6.73980         0.583710      0.375614     -0.620304
Ti       5.89680      5.71717     11.05345        -1.553217     -0.052804     -1.301756
Ti       5.80964      9.63491      2.33262         0.172137      0.513611     -1.103799
Ti       5.78288      9.56024     15.43356        -0.635483      0.131624     -1.803560
Ti       5.77156      9.64259      6.75142         0.468461     -1.008550     -1.256250
Ti       5.79651      9.60431     11.00217         0.057566      0.805756     -0.574747
Ti       9.67265      1.88089      2.39836        -0.583453      0.579666     -1.556492
Ti       9.67234      1.90599     15.49646        -0.204445     -0.568168     -1.014357
Ti       9.60980     13.45308      2.35377        -0.006106      0.808041     -1.141061
Ti       9.58156     13.52544     15.53496        -0.269757      0.499350     -1.393439
Ti       9.62692      1.88284      6.59868        -0.330584      1.149135     -1.286483
Ti       9.55541     13.47583      6.63181         0.492138      0.024069     -1.999892
Ti       9.74151      1.83171     11.05517        -0.118116      0.497556     -2.418891
Ti       9.53418     13.46835     10.92894         1.196726      0.354446     -1.788022
Ti       9.61702      5.71296      2.44471         0.793190      0.254309     -1.946680
Ti       9.58548      5.79414     15.39887         0.900314     -0.303953     -1.608339
Ti       9.74924      5.78614      6.60144        -1.038943     -0.470559     -0.100254
Ti       9.67744      5.67990     11.13795         0.653043      0.176845     -2.022779
Ti       9.64102      9.62404      2.32255         0.365633     -0.260481     -0.468937
Ti       9.65782      9.66128     15.36210         0.399012     -0.110141     -1.695751
Ti       9.60171      9.55518      6.78102         1.209591      0.027326     -2.920462
Ti       9.66898      9.61806     11.00178        -0.306811     -0.641849     -1.209614
O       1.85573      1.95017      0.51032         0.357954     -0.197263      1.283018
O       1.97819      1.88238     13.39704        -0.292992      0.042483      2.450682
O       1.75852     13.39618      0.56407         0.780312      0.214506      0.946961
O       1.97435     13.38246     13.57687        -0.146448      0.700504      1.092185
O      13.48541      1.84330      0.53396         0.403288      0.260923      1.458326
O      13.48535      1.86827     13.62817         0.040678      0.075525      0.309734
O      13.43725     13.47425      0.49350         0.210207     -0.238883      1.154689
O      13.47148     13.39527     13.54202        -0.144265      0.394053      1.457036
O       1.91847      1.92389      4.96954         0.171738      0.173103      0.253634
O       1.78281     13.38119      4.83595         0.558197      0.296419      1.804750
O      13.44369      1.87870      4.79237        -0.173631     -0.003958      1.471815
O      13.45420     13.37370      4.87597        -0.189809      0.645329      0.870728
O       1.86007      1.83917      9.15462         0.253577      0.057594      1.781864
O       1.98386     13.48449      9.26226        -0.101032      0.045865      1.484473
O      13.46015      1.90139      9.34692        -0.142041      0.007976      0.060424
O      13.44877     13.63334      9.12323         0.082861     -0.035723      1.290577
O       2.06446      5.79500      0.57849        -0.442910      0.025658      1.301410
O       2.04740      5.83608     13.54752        -0.606590     -0.816476      1.622298
O      13.46132      5.68424      0.56317         0.459967      0.266894      0.957144
O      13.48313      5.75036     13.44465         0.390852     -0.046378      2.257434
O       1.87349      5.77265      4.93459         0.169021     -0.131442      1.741366
O      13.37840      5.64099      4.88920         0.491309      0.293925     -0.148819
O       1.90595      5.74749      9.13848        -0.091576     -0.062476      0.555903
O      13.23568      5.75625      9.30335         0.664323     -0.183707      0.887227
O       1.95578      9.50409      0.63776        -0.096582      0.109217      0.554212
O       1.83504      9.59256     13.54187         0.246836      0.223087      0.916654
O      13.41878      9.57706      0.51676         0.280912     -0.037047      1.597842
O      13.48020      9.59578     13.47057         0.322372      0.459217      1.261798
O       1.75711      9.48784      4.93949         0.710481      0.363474      1.356475
O      13.54370      9.52035      4.99339        -0.241012      0.325715      0.164744
O       1.90948      9.60764      9.12341         0.336976      0.335348      1.450640
O      13.35727      9.56030      9.16894         0.147152      0.101326      1.725074
O       5.78538      1.91984      0.51032        -0.333593      0.144520      1.768485
O       5.82596      1.89533     13.44806         0.360420     -0.009523      0.422493
O       5.70830     13.44266      0.54870        -0.040274      0.438462      0.770763
O       5.79513     13.63202     13.58436         0.104917     -0.321998      1.662688
O       5.67603      1.90515      4.82492         0.084946      0.111286      1.669366
O       5.84334     13.47449      4.78739        -0.541536     -0.007131      1.852044
O       5.87971      1.81784      9.14169         0.119689      0.004716      1.800331
O       5.80053     13.50149      9.17269         0.053115     -0.209107      0.857235
O       5.75322      5.74436      0.59758         0.057249     -0.006120      1.369864
O       5.73063      5.98947     13.44034         0.479584     -0.755238      1.654048
O       5.81657      5.83221      4.97961        -0.202753     -0.338584     -0.638319
O       5.73872      5.77744      9.24849         0.834698     -0.204353      1.221886
O       5.85014      9.66813      0.50504        -0.276821     -0.078392      1.074308
O       5.64274      9.60636     13.62576         0.856941     -0.059606      0.799319
O       5.90481      9.62370      4.95353        -0.298356      0.149449      1.024698
O       5.72508      9.61977      9.19727         0.067598      0.464148      0.558026
O       9.55779      2.06734      0.50110         0.080643     -0.453483      1.312164
O       9.64624      1.76860     13.63499        -0.146238      0.109437      1.104857
O       9.58712     13.47125      0.55843         0.229618     -0.166301      0.227965
O       9.56698     13.53710     13.67453        -0.085781      0.423111      1.059227
O       9.56988      1.90948      4.64580         0.348521     -0.376262      2.607902
O       9.63357     13.44629      4.72840        -0.199808      0.389901      1.619728
O       9.75614      1.82014      9.13656        -0.265401     -0.019120      1.404414
O       9.58302     13.41254      9.03682        -0.297099      0.587849      1.756589
O       9.62429      5.76831      0.41384        -0.157662     -0.234936      1.522127
O       9.66785      5.80059     13.44442        -0.401798     -0.033253      1.995242
O       9.74432      5.81037      4.82877        -0.029139     -0.172267     -0.647697
O       9.74442      5.66215      9.18971        -0.161151      0.172739      1.736295
O       9.63369      9.59571      0.51816         0.045251      0.027360      0.858265
O       9.55987      9.58150     13.52680        -0.023611      0.220292      1.186046
O       9.56955      9.61581      4.83482        -0.160584     -0.094888      1.958488
O       9.72853      9.49958      9.13434        -0.372945      0.410407      1.170038
O       3.80309      1.98707      2.76227         0.301838      0.119609     -0.172856
O       3.92201      1.87485     15.56997        -0.783522     -0.005930      0.396117
O       3.82895     13.38372      2.70160         0.138425      0.315424      0.274952
O       3.88278     13.49038     15.67415        -0.152720      0.432238      0.521251
O      15.43356      1.81927      2.71639        -0.334998      0.419965     -0.142574
O       0.00611      1.88451     15.72743        -0.476487     -0.236894     -0.293369
O      15.45387     13.48099      2.66969        -1.113574     -0.018250      0.220149
O      15.41261     13.36493     15.74219         0.256027      0.600868     -0.361867
O       3.87661      1.98863      7.14632        -0.203739      0.019202     -0.561444
O       3.79191     13.47230      7.05588         0.614994     -0.664339     -0.356780
O      15.43048      1.81450      7.07115        -0.225728      0.316461     -0.086505
O      15.42027     13.52727      7.10892        -0.388877     -0.015084     -0.413401
O       3.91593      1.83622     11.32829        -0.251094      0.315107     -0.078342
O       3.89966     13.63601     11.37096        -0.145865     -0.502522     -0.092133
O      15.44115      1.96045     11.40292         0.435795     -0.184049      0.142313
O      15.39147     13.56616     11.36692         0.538345      0.067582     -0.373015
O       3.88215      5.77213      2.86055        -0.421917      0.028698     -0.411952
O       3.87018      5.73734     15.71438         0.314921      0.093521      0.211322
O       0.00543      5.69597      2.78645         0.089565      0.259548     -0.293129
O       0.03382      5.65702     15.76027        -0.809144      0.086391     -0.125294
O       3.86414      5.79168      7.18782        -0.783952     -0.226922     -0.736683
O      15.35955      5.85153      7.11158         0.447987     -0.349887     -0.080932
O       3.77845      5.77215     11.29623         1.672454     -0.187211      0.265168
O       0.01929      5.78106     11.24865        -0.687565     -0.212363      0.474700
O       3.91910      9.73096      2.69897        -0.334953     -0.443189      0.171771
O       3.84292      9.55166     15.67489         0.112547      0.036681      0.621115
O      15.40702      9.74691      2.76874        -0.197466     -0.885168     -0.393809
O      15.46129      9.63138     15.70562         0.035175      0.152168      0.232008
O       3.85601      9.57621      7.11437        -0.120695      0.950586     -0.785768
O      15.34640      9.51359      7.11560         1.018192      0.190293      0.239565
O       3.78877      9.64987     11.42009         0.708136      0.027463     -0.566173
O      15.45552      9.70246     11.17215         0.068289     -0.055226      0.597229
O       7.66685      1.86577      2.72980        -0.226259      0.006010     -0.124225
O       7.67964      1.95209     15.77509         0.696593     -0.091011     -0.314264
O       7.70092     13.56749      2.71448        -0.037761      0.067963     -0.061480
O       7.63588     13.53353     15.92852         0.706179      0.051311     -0.432437
O       7.68846      1.90951      6.95738         0.486384     -0.392677     -0.042849
O       7.70179     13.64401      6.99190        -1.209895     -0.636432     -0.142123
O       7.86746      2.06550     11.36859        -1.068203     -0.843848      0.248800
O       7.70861     13.35920     11.37427        -0.120850      0.543923     -0.199392
O       7.77729      5.74233      2.78519        -0.962539     -0.205897     -0.114261
O       7.70802      5.77535     15.69002         0.252556     -0.035643     -0.176845
O       7.79012      5.76657      7.06346        -0.106862      0.448638      0.128485
O       7.78717      5.67068     11.41076        -1.010410      0.438800     -0.172399
O       7.71982      9.59499      2.65592        -0.066234      0.464704      0.025511
O       7.77505      9.57995     15.74931        -0.685112      0.055718     -0.035921
O       7.71549      9.57185      7.19486        -0.453882      0.203657     -0.272765
O       7.75454      9.75014     11.28154        -0.876800     -0.434709      0.193562
O      11.52675      1.83935      2.62300         0.683126      0.037928      0.301464
O      11.57086      1.82793     15.87049         0.010669      0.195929     -0.658805
O      11.53965     13.54030      2.68186         0.055157     -0.389590      0.187614
O      11.50798     13.61179     15.81051         0.061801     -0.521884     -0.212246
O      11.53969      1.90554      6.93387        -0.653622     -0.104418     -0.056060
O      11.47263     13.41567      6.99721         0.528421      0.689959     -0.329490
O      11.51370      1.86206     11.61879         0.816761     -0.030328     -0.367596
O      11.51279     13.61225     11.34102         0.412884     -0.275297     -0.123021
O      11.58358      5.64631      2.67854        -0.448707      0.421531      0.321544
O      11.55127      5.74105     15.68973         0.431441      0.382334     -0.271392
O      11.55434      5.60406      7.05499         0.549687     -0.100637      0.119871
O      11.57811      5.77822     11.49227         0.025939      0.365412     -0.222061
O      11.58151      9.68750      2.78661        -0.624056     -0.249113     -0.398816
O      11.58100      9.54585     15.66355        -0.558265      0.153680      0.005157
O      11.50422      9.70203      7.06084        -0.725856     -0.079681     -0.161763
O      11.45347      9.61482     11.49108         0.953119     -0.104135     -0.582540
O       1.80130      3.78658      2.81669         0.609943      1.048830     -0.304630
O       1.92205      3.72225     15.72089         0.291050      0.459246     -0.159310
O       1.96162     15.43655      2.72138        -0.043273      0.198941      0.017191
O       1.87673     15.40073     15.78352         0.277006      0.104237     -0.302429
O      13.46283      3.82414      2.73687         0.388339     -1.002133      0.018256
O      13.41982      3.83645     15.77402         0.491972     -0.244436     -0.480470
O      13.43706     15.34284      2.71454         0.062406      0.549391      0.147452
O      13.47572     15.36186     15.76844         0.368439      0.854323     -0.189219
O       1.80403      3.83765      7.12229         0.449891      0.145720     -0.342212
O       1.98702     15.42926      7.04653        -0.159377     -0.401159     -0.129819
O      13.57334      3.75991      7.03703        -0.515538      0.624321      0.105020
O      13.47275     15.45651      6.98292        -0.417659     -0.624207      0.073558
O       1.92543      3.83214     11.32248         0.065615     -0.611075      0.127009
O       1.91739      0.00197     11.49733        -0.037993     -0.624562     -0.612541
O      13.47730      3.82419     11.47945        -0.035122      0.523613     -0.018660
O      13.52698      0.04855     11.45066        -0.103343     -1.543411      0.103976
O       1.84118      7.71415      2.85992         0.327291     -0.406880     -1.004007
O       1.84582      7.63957     15.67573         0.385678      0.273678      0.692144
O      13.43175      7.63490      2.70506         0.513985      0.607630     -0.107195
O      13.60556      7.71213     15.67728        -0.314944     -1.152733      0.228959
O       1.91385      7.66650      7.20511         0.075512      0.658891     -0.468782
O      13.25320      7.61135      7.00948         0.281080      0.144389      0.167498
O       1.93469      7.66782     11.35489        -0.362209      1.021592     -0.449032
O      13.57558      7.76803     11.36537        -0.429613     -0.860712     -0.035476
O       1.87807     11.56511      2.79407         0.323586     -0.829437     -0.038425
O       2.06816     11.54341     15.77689        -0.573395     -0.122559     -0.041704
O      13.44548     11.55902      2.72347        -0.061585     -0.082853     -0.069395
O      13.42043     11.50678     15.76026        -0.042156      0.688791     -0.122621
O       1.73726     11.55605      7.09023         0.883019     -0.441632     -0.217719
O      13.40117     11.57128      7.06777         0.560632      0.341383     -0.018916
O       1.98318     11.59637     11.43674        -0.181830      0.097932     -0.564167
O      13.44696     11.57889     11.25707         0.038843      0.677837      0.070571
O       5.83785      3.77394      2.86955        -0.370316      1.106958     -0.351952
O       5.85740      3.86654     15.55609        -0.357062      0.178880      0.244641
O       5.62866     15.42657      2.73553         0.375141      0.685097     -0.255043
O       5.82678      0.06927     15.79509        -0.072167     -0.815361     -0.307755
O       5.83962      3.92907      7.02570        -0.358843     -1.854156      0.115895
O       5.62834     15.43326      6.96894         0.671625     -0.135463     -0.226545
O       5.80223      3.84266     11.40221        -0.011591     -0.022759      0.017310
O       5.87996     15.44066     11.42687         0.447274     -0.315538     -0.361696
O       5.87830      7.71126      2.74128        -0.641094      0.385682     -0.363409
O       5.81477      7.66870     15.68884         0.143111      0.089433      0.499049
O       5.77934      7.62545      7.11995         0.306011      2.205485      0.119727
O       5.77049      7.77173     11.34106         0.488380     -0.669704     -0.027290
O       5.84666     11.69662      2.79805        -0.016932     -2.203985     -0.227383
O       5.85357     11.57018     15.72475        -0.407818     -0.397040     -0.011334
O       5.76274     11.63606      7.05809         0.041222     -0.830543     -0.205410
O       5.70344     11.53167     11.55819         0.242554      0.534754     -1.005978
O       9.67109      3.80605      2.81791        -0.526153      0.254633     -0.280328
O       9.69491      3.81041     15.77309        -0.531020      0.682415     -0.726311
O       9.58998     15.45984      2.64704         0.257051     -0.406165      0.047549
O       9.58967     15.45912     15.94214        -0.316853      0.040188     -0.472252
O       9.60952      3.84949      6.79523        -0.136332     -1.685817      0.277407
O       9.60301     15.39789      6.96373         0.168301      1.070772     -0.429938
O       9.74676      3.82680     11.42002         0.059605     -0.161382      0.073205
O       9.64087     15.37628     11.37017        -0.621941      0.155204      0.070010
O       9.63700      7.65219      2.64686         0.210839      0.743566     -0.012422
O       9.64966      7.69226     15.73648        -0.201967     -0.353147     -0.353714
O       9.70695      7.63748      6.97706        -0.200352      1.063445      0.418757
O       9.54773      7.67161     11.45086         0.249424      0.446876     -0.635779
O       9.59239     11.59689      2.72606         0.044420     -0.987395     -0.334345
O       9.60229     11.58096     15.74599         0.048406     -0.288504     -0.130842
O       9.56032     11.62207      6.94196        -0.631506     -1.015214      0.171101
O       9.63095     11.62584     11.31117         0.299176     -0.702180     -0.074842
