  # total energy = -7845.04624002 
CRSYTAL
PRIMVEC
    15.6080000000000005    0.0000000000000000    0.0000000000000000
     0.0000000000000000   15.6080000000000005    0.0000000000000000
     0.0000000000000000    0.0000000000000000   16.6239999999999988
PRESSURE
2.01089 2.12727 -3.03418 -0.31567 0.010034 -0.224611
PRIMCOORD
320 1
Pb       3.69262      4.06523      4.13293         1.096590     -0.220090      0.910574
Pb       3.80953      4.06657      0.21898         0.627861     -1.317121     -0.644176
Pb       3.85329      0.08232      4.33695        -0.101452      0.039412     -0.236935
Pb       3.82313     15.40373     16.35320        -0.077436      1.355262      1.658650
Pb      15.57083      3.97635      4.19572         0.216456      0.803541     -0.074803
Pb       0.07200      3.74336     16.53186        -0.127980      0.359822      0.140033
Pb       0.05028     15.46940      4.40970        -0.591853     -0.672512     -0.068776
Pb       0.25110     15.40545      0.00409        -0.055308     -0.320664      0.033240
Pb       3.92558      3.79416      8.35395        -0.157888      0.446525     -0.865327
Pb       3.84928     15.56961      8.09626         0.286403     -0.286164      0.418914
Pb      15.45335      4.07831      8.23265         0.677895     -0.084905      0.786854
Pb      15.60548      0.28688      8.34165        -0.648622     -1.323031      0.743369
Pb       4.15442      3.82995     12.41899        -0.100489     -0.205729      0.321810
Pb       3.88320     15.45228     12.34642         0.109393      1.894222      0.848684
Pb      15.53113      3.64724     12.49164         0.561785      1.182346      1.036230
Pb       0.15455      0.22780     12.41825        -1.756741     -1.178810      0.391798
Pb       3.68491      7.79492      4.30017         1.155662     -0.082096     -0.460321
Pb       3.68105      8.02037      0.11216         0.401254     -0.573503      0.262545
Pb      15.42740      8.05326      4.15433        -0.407656     -0.888522      0.527136
Pb      15.54754      7.88607      0.23571         0.153679      0.205549     -0.241475
Pb       3.68723      7.92468      8.36905         1.091552     -0.061467     -0.149848
Pb      15.58314      7.51536      8.40657        -0.335501      0.764277      0.392349
Pb       3.94718      7.89326     12.52474         1.215596     -0.562329     -0.088773
Pb       0.19143      7.59876     12.73595        -1.475104     -0.459049     -0.305597
Pb       4.03775     11.59132      4.02878        -0.211009     -0.041149      0.751676
Pb       3.96567     11.67566     16.45477        -0.451872     -0.109464      0.707181
Pb      15.43590     11.64152      4.52403        -0.531327      0.584661     -0.449790
Pb       0.04013     11.73572      0.09759        -0.132381      0.280675      0.110995
Pb       4.06123     11.70499      8.64111        -0.649820     -0.731875     -1.295201
Pb      15.59394     11.30076      8.47969         0.349465      0.269132      0.208318
Pb       3.49238     11.80759     12.35969         1.467478     -0.899427      0.332690
Pb      15.56290     11.67932     12.40578        -0.310993     -0.514719     -0.679723
Pb       7.71573      4.08944      4.37953         0.005822     -1.034261     -1.297049
Pb       7.86038      3.63997      0.11777         0.276450      1.006198     -0.232034
Pb       7.47968      0.20455      4.00216         0.410192     -1.484281      0.225997
Pb       7.81783      0.27274      0.15189        -0.332729     -1.432833     -0.263723
Pb       8.02069      3.91218      8.71618        -0.097575     -0.107853     -0.539250
Pb       7.84744      0.25021      8.33114        -0.821681     -1.591719     -0.054165
Pb       7.90746      3.65364     12.67687         0.167647      0.397679      0.113819
Pb       7.60988     15.26621     12.48492         0.173145      1.497390      1.101766
Pb       7.85519      7.72543      3.91609        -0.356730      0.268419      1.082599
Pb       7.93397      7.89961     16.33964        -0.113014     -0.676513      0.472075
Pb       7.91461      7.63505      8.22139        -0.494330      1.077831      0.257797
Pb       7.64303      7.66924     12.61388         0.099674     -0.004341     -0.168751
Pb       7.61496     11.88479      4.30125         0.870229     -0.372390     -0.574889
Pb       7.55056     11.30476     16.60248         0.581681      1.350695      0.258939
Pb       7.50350     11.92054      8.62712         1.004065     -0.214031     -0.590326
Pb       7.80751     12.03322     12.60500        -0.306011     -1.431162      0.407423
Pb      12.03225      4.10517      4.01861        -0.846246     -0.881753      0.464452
Pb      11.85172      3.79961      0.14310        -0.507406     -0.344889     -0.622196
Pb      11.65534      0.08908      3.89517        -0.046953     -0.971535      1.519278
Pb      11.81373     15.53284      0.09461        -0.396481     -0.314073     -0.873250
Pb      11.57114      3.87843      8.27688         0.184431     -0.406718     -0.334776
Pb      11.36757      0.12918      8.25451         1.089263     -0.088983      0.684406
Pb      11.80922      4.01511     12.64873        -1.115781     -0.827283      0.326257
Pb      11.74128      0.12764     12.28327         0.659333      0.244477      0.126392
Pb      11.77745      7.83764      4.00120         0.709149      0.727199      0.875851
Pb      11.68368      7.73009     16.51446        -0.461568      0.661026      0.012675
Pb      11.38237      7.86697      8.13871         1.552609     -1.859024      0.627754
Pb      11.79711      7.83186     12.27518        -0.894746     -0.206450      1.403014
Pb      11.63748     11.81424      4.36394         0.081812     -0.306668     -0.798336
Pb      11.65561     11.70787      0.27491        -0.702329     -0.017759      0.016176
Pb      11.90836     11.18028      8.19930        -0.517598      1.305658     -0.108067
Pb      11.50838     11.65781     12.29181         0.155122     -0.118290      0.676226
Ti       1.84324      1.85454      2.09955         2.283526      0.555712     -0.888794
Ti       2.04586      1.94294     14.65850         1.555848     -0.132421     -0.132049
Ti       1.98786     13.61777      2.34080        -0.719675      0.108040     -0.977403
Ti       1.81963     13.58380     14.57137         1.485258      0.366991      1.219874
Ti      13.72313      1.75775      2.03758        -0.840568      1.515372     -0.394094
Ti      13.85272      1.88709     14.73224        -3.067317     -0.908397     -1.384020
Ti      13.60481     13.71369      2.17724         0.645934     -3.661989      0.490559
Ti      13.55901     13.58118     14.25329        -0.454204      1.207862      4.273311
Ti       1.90149      1.95100      6.28241         1.845107      0.351947     -0.968957
Ti       1.89447     13.50523      6.40492         0.770794     -0.097517     -1.056840
Ti      13.75646      1.94926      6.26993        -3.461527     -0.150224      0.270710
Ti      13.57239     13.81712      6.50022         0.809768     -1.370455     -0.493709
Ti       1.89051      2.02987     10.52751         1.783740     -1.988067      1.541490
Ti       1.83406     13.77195     10.41315        -1.571305     -0.595583      0.780614
Ti      13.68858      2.06717     10.41804        -1.977636     -2.934510     -0.874349
Ti      13.72971     13.45300     10.34882        -0.834649      2.074044      0.373286
Ti       1.90306      5.84616      2.23763        -0.278645      0.555616      0.721836
Ti       2.01562      5.75606     14.82689         0.623964     -0.087621     -0.455267
Ti      13.64763      5.79680      2.08579         1.714316      1.512900      0.339179
Ti      13.77153      5.91490     14.89962        -1.302252      0.916733     -0.931334
Ti       2.07522      6.11180      6.35054         0.257470     -4.611223      0.385894
Ti      13.68717      5.78815      6.47839        -1.352083      2.544468     -0.533963
Ti       1.83782      5.72419     10.60238         0.302465     -0.412486      0.440913
Ti      13.55951      5.76446     10.69769         0.736032      1.568356     -0.777810
Ti       1.91984      9.89919      2.37732        -0.542009     -1.166262     -0.921510
Ti       1.72011      9.72377     14.52775        -0.026724      0.177705      1.423443
Ti      13.60120      9.88560      2.23513        -0.709401      0.352047      0.727764
Ti      13.52207      9.87195     14.92629        -0.073933     -2.559617     -1.313478
Ti       2.00265      9.79073      6.32005         1.306326      0.778851      0.880582
Ti      13.72208      9.63666      6.37660        -0.382402     -1.304309     -1.315003
Ti       1.97414      9.45149     10.57038        -1.062781      2.727329     -1.288436
Ti      13.60935      9.62107     10.66443         2.294169      1.017237      1.539840
Ti       5.62625      1.91226      2.13191        -0.206593     -0.460352     -0.829272
Ti       5.91157      2.09288     14.68673        -0.950898     -1.901760     -1.174755
Ti       5.84226     13.44641      2.32976         1.821190      1.162587     -1.212994
Ti       5.72078     13.72158     14.80504         3.641789      0.222999     -0.548721
Ti       5.90559      1.92326      6.20728        -1.432304      0.823830     -0.395087
Ti       5.85394     13.53011      6.42721        -0.345797     -0.626263      0.607907
Ti       5.86378      1.89291     10.31279        -1.805252     -0.236688      3.957535
Ti       5.53535     13.59143     10.68660         3.667246      1.302519      0.412950
Ti       6.00547      5.70839      2.10928        -0.327106      0.434451     -0.061120
Ti       5.85333      5.75131     14.81631         0.436644      0.920468     -1.750246
Ti       6.08896      5.77165      6.43490        -3.942697      0.339786     -0.760088
Ti       5.65649      5.88186     10.33617         2.345060     -0.386520     -0.300257
Ti       5.88544      9.57074      2.19567        -0.353218      1.948539      0.917828
Ti       5.69523      9.78091     14.46137         1.313836     -1.223636     -1.615828
Ti       5.98100      9.53164      6.21788        -1.262916      1.762123      1.741899
Ti       5.97901      9.68488     10.44493        -0.027389     -0.464883      0.938687
Ti       9.72581      1.91974      2.33703         0.255504      0.963358     -1.298355
Ti       9.92150      1.76716     14.80521         0.502388      0.774678     -1.600654
Ti       9.80147     13.67205      1.94523        -2.696105     -2.197571     -0.130672
Ti       9.87952     13.67463     14.54020        -4.083677     -0.274554      1.008368
Ti       9.70770      1.68699      6.18692         0.996932      2.988137      2.555045
Ti       9.76259     13.57548      6.21605        -0.983108     -0.177854     -0.951244
Ti       9.64740      1.95118     10.64998         1.797646     -0.082493      1.041100
Ti       9.67423     13.77412     10.51327         0.680406     -2.087515     -0.418321
Ti       9.91354      5.88502      2.17193        -2.118629     -0.995821     -1.448528
Ti       9.82105      5.66639     14.69832        -0.745871     -0.153321     -1.183058
Ti       9.72479      5.68178      6.17196         3.320894      0.229146      0.223228
Ti       9.69083      5.84768     10.52920        -0.958200     -0.065645      1.091506
Ti       9.72243      9.69442      2.40969        -0.197354      2.631806     -2.119507
Ti       9.68883      9.73223     14.52136         0.722407      0.232557     -1.317188
Ti       9.64968      9.70272      6.39689        -0.024639      0.738439     -0.591164
Ti       9.73037      9.67382     10.40295        -1.690632      1.372723      0.642529
O       2.09662      2.02323      0.09315        -1.348957     -0.012111      2.351579
O       1.73599      1.87985     12.79173         0.079082      1.279927      0.152849
O       2.01669     13.91258      0.14903        -1.207802     -1.516626      0.609008
O       2.04424     13.45242     12.78188        -0.182184      0.810697     -0.300614
O      13.52498      1.91996      0.16903         0.387487     -1.242876      2.325292
O      13.69005      2.05038     12.91080         0.601607      0.445407     -1.218802
O      13.74858     13.59190      0.37749         0.482463      0.173758     -1.083193
O      13.59388     13.29688     12.60277         0.263015      0.045244     -1.346868
O       2.10720      1.76926      4.36120        -1.078088      0.198220      1.652209
O       2.10697     13.58180      4.41844        -0.165366      0.137828     -1.235756
O      13.84723      1.88179      4.47461        -1.289071      0.016870     -0.547730
O      13.59424     13.75164      4.21143        -0.131107      0.047890      1.452125
O       1.86665      1.65731      8.85311        -0.050295      0.178756     -3.809132
O       1.80887     13.88460      8.69458         0.122778     -0.631563     -1.770676
O      13.68857      1.89542      8.60182         0.739594      0.139593     -0.275130
O      14.06950     13.51573      8.58293        -0.976043      0.636883     -1.297713
O       2.08666      5.75795      0.08119        -1.038169      0.076623      1.992584
O       1.66387      5.69153     12.54258         0.706074      1.209404     -0.249520
O      13.78875      5.78079      0.14888        -0.703562      0.084126      1.208600
O      13.74863      6.02100     12.55959        -0.063693     -1.232323      0.032903
O       1.69599      5.50931      4.41320         0.669766      1.051064     -0.384683
O      13.73278      5.87624      4.25307        -0.198429     -1.651171     -0.580496
O       2.03651      5.93964      8.35848        -0.402213     -0.115720     -0.316805
O      13.70088      6.16349      8.39916         0.228638     -0.980943      0.434368
O       1.87493      9.56321      0.40037        -0.096534      0.897208      1.774376
O       1.97683      9.85105     12.59669        -0.068500     -1.468877      1.282416
O      13.79609      9.57603      0.24823        -0.232289      0.972155      0.721965
O      13.69970     10.14356     12.60312        -0.691884     -1.438455     -0.748223
O       2.03304     10.06473      4.33836         0.145569     -0.504973      0.080887
O      13.55869      9.78815      4.31953         0.148858     -0.349439     -0.031105
O       1.99550      9.49973      8.32640        -0.777006      0.482453      0.696483
O      13.65048      9.45433      8.23159         0.636956      0.864150      1.870655
O       5.83215      2.13051      0.29575         0.376292     -0.724906      0.403910
O       5.67551      2.08693     12.77949         0.991967      0.165798      1.365211
O       6.25075     13.54382     16.56315        -1.276020     -0.091967      0.354852
O       5.42839     13.54514     12.67536         0.826596      0.860637     -0.630083
O       5.71222      1.92966      4.28355         0.393090     -0.822377      1.853841
O       5.66211     13.59502      4.22651         0.439162     -0.161626      0.636287
O       5.92877      2.13142      8.62847         0.025099     -0.312896     -2.444177
O       5.70136     13.51916      8.38271         0.443483     -0.342905      0.984198
O       5.76282      5.64845      0.36284         0.018409      0.626039      0.638620
O       5.82751      5.75648     12.93894         0.294820     -0.145195      0.584594
O       6.14417      5.73226      4.55981         0.190825      0.422354     -0.426739
O       5.64682      5.88979      8.44629         0.736952     -0.817354      0.805955
O       5.58443      9.56648      0.45784         0.983801      0.840718     -2.433776
O       5.89303      9.65806     12.54173        -1.344911     -0.169388      1.715967
O       6.26421      9.62082      4.52187        -1.287541     -0.020014     -1.404469
O       5.82662      9.79074      8.67812         0.058702      0.274479     -0.672266
O       9.75802      1.98092      0.21972         0.082453     -0.547969      0.366724
O       9.86109      1.78016     12.78866        -0.432071      0.108672     -1.536474
O       9.49619     13.77731      0.14606         0.302271     -1.086716      0.001464
O       9.54493     13.73464     12.71854         1.674111     -0.214934     -1.469844
O       9.72621      1.55397      4.49982        -0.074222      0.573014     -3.456469
O       9.83354     13.67025      4.36423         0.222361     -0.377273      1.654698
O       9.51166      1.76421      8.56201         0.321895      0.858887      1.686064
O       9.48236     13.49245      8.76758         0.189486      0.816069     -0.371058
O       9.91696      5.85892      0.36353         0.492769     -0.149312     -0.817969
O       9.80998      5.65147     12.79701         0.130897      0.564578      0.664251
O       9.75546      5.85396      4.34232         0.296101     -0.823203      1.371229
O       9.89917      5.61057      8.71408        -1.256598      0.324342      0.111936
O       9.64612      9.56658      0.24471        -0.176962      0.282773      0.591917
O       9.74009      9.65020     12.65007         0.566372     -0.312735      0.439270
O      10.18443      9.72473      4.66498        -1.400408     -0.185465     -2.603003
O       9.70956      9.52353      8.40693         0.770643      0.754815      1.892958
O       3.79314      1.94854      2.39206         0.782378     -0.338490     -0.441858
O       3.85946      2.06748     14.82886        -0.602134     -0.764135     -0.385288
O       4.06016     13.42253      2.00745        -2.132899      0.497833      0.359487
O       3.88741     13.50596     14.91418        -0.912056      0.170639     -0.224122
O      15.55439      1.95472      2.36291        -0.119460     -0.313442     -0.692045
O       0.01584      1.76138     15.04359         1.124749      0.356032     -0.148966
O       0.08718     13.49639      2.25370         1.093699      0.728784      0.280619
O       0.05269     13.50889     14.56762        -2.650181     -0.221610      0.592719
O       3.80073      1.81169      6.64421         0.317286     -0.340933     -0.201419
O       3.89680     13.43280      6.55501        -0.355098      0.346965     -0.119888
O      15.54155      1.66108      6.29305         2.679586      0.289453      1.098890
O      15.48555     13.63727      6.11834         1.430006      0.495540      0.504983
O       3.87835      1.88982     10.77242         0.359005      0.377207     -0.581845
O       3.76266     13.64089     10.76464        -1.855703      0.273393     -1.231340
O      15.50323      2.26370     10.72833         0.787542     -1.632218      0.018526
O       0.02239     13.63911     10.80588         0.067336      0.099938      0.284898
O       3.98921      6.20506      2.55879         0.067055     -2.163353     -0.650924
O       3.89250      5.90873     14.85033        -1.185522      0.261931     -0.197422
O      15.59396      5.63642      1.96631         1.215012     -0.028193      1.214534
O      15.52831      5.86321     14.72191         2.615723     -0.456720      0.035671
O       3.90531      5.84611      6.17006        -1.067509      0.193330      0.428138
O      15.46217      5.68836      6.39000         3.029822     -0.438020      0.517705
O       3.92092      5.74935     10.67035        -1.744543      0.757487      0.191549
O       0.05195      5.85570     10.35766        -0.808265      0.012895     -0.037521
O       4.08441      9.42298      2.66832        -1.625254      1.100407     -0.342618
O       3.92410      9.47075     15.03097        -1.152800      1.480855     -1.819191
O      15.55939      9.97659      2.54839         1.029040     -0.647128     -0.811789
O      15.46045      9.85461     14.70018         2.190795      0.161958     -0.194635
O       3.92738      9.53377      6.45624         0.346126      0.708157     -0.525617
O       0.12178      9.82223      6.14438        -1.287656     -0.363326      0.479009
O       3.88928      9.35473     10.39254         0.267182      1.127829      1.202434
O       0.06205      9.52854     10.55424         0.284814      0.890702     -0.391085
O       7.87219      1.69568      2.35891        -0.449697      0.991357     -0.226339
O       7.92085      1.92081     14.68850        -2.572541      0.038720      0.871290
O       7.75047     13.40707      2.39519         0.759889      0.809049      0.093713
O       7.68540     13.70814     14.28532        -1.100107     -0.321237      0.601644
O       7.69750      2.04671      6.28855         0.118948     -0.597052      0.314609
O       7.79079     13.52621      6.40071        -0.157944     -0.047904     -0.039671
O       7.69048      1.88616     10.74688         1.590874      0.478561     -0.351610
O       7.62740     13.66404     10.83076         1.340217     -0.394332     -0.587217
O       8.06927      5.64517      2.11709        -2.914935     -0.176296      1.285648
O       7.80259      5.46790     15.18866        -0.267873      1.336059     -0.857755
O       7.94464      5.58341      6.52686        -0.807457     -0.103025      0.762697
O       7.75139      5.72108     10.69166         1.507368      0.253152     -0.676428
O       7.86898      9.83291      2.66487         1.921221      0.171480     -0.669028
O       7.73269      9.83129     14.61584        -0.175137     -0.996750      1.094749
O       7.82461      9.53162      6.64877         0.584379      0.417168     -0.030740
O       7.85477      9.89125     10.56155        -0.033594     -0.548051     -0.433988
O      11.55171      1.88876      2.36659         3.675740     -1.261265      0.159308
O      11.77708      1.86645     14.69808        -0.981177      0.425839      1.146578
O      11.63857     13.58433      1.85585         1.685877      0.136578      0.514408
O      11.53784     13.40538     14.75924         4.543153      0.328213      0.062820
O      11.66040      1.73530      6.65439        -0.133339      0.217726     -0.831782
O      11.70462     13.75425      6.50663        -0.539460     -0.275901      0.336685
O      11.68974      1.94434     10.59121        -0.399885      0.218325      0.281753
O      11.81176     13.62409     10.68175        -0.169391     -0.300902     -0.419097
O      11.75885      5.82669      2.33268         1.334232     -0.149199      0.206816
O      11.83578      5.67902     14.95559        -1.522687     -0.072036     -0.707833
O      11.75743      5.67951      6.72665        -2.009836      0.582024     -1.506621
O      11.67693      5.80802     10.73106         0.873473      0.322011      0.211607
O      11.70308      9.70378      2.26492         0.717321     -0.804746      0.089792
O      11.70495      9.36613     14.84791        -0.566912      0.946415     -0.204517
O      11.77037      9.32457      6.46317         0.038654      1.466046      0.669382
O      11.74462      9.56458     10.59002        -0.071704      0.696164     -0.538516
O       2.13335      3.82320      2.51946        -1.378561      1.176810     -1.622799
O       2.07406      3.94392     14.68008        -1.387700      0.013800      0.490480
O       2.03991      0.04464      2.11881        -0.539570     -1.271906      0.982535
O       1.87285     15.59593     14.79024         0.544514     -1.092852     -0.357583
O      13.44620      3.72389      2.16351         0.523714      0.651557      0.410191
O      13.76997      3.69310     15.01471         0.149243      2.166606     -0.171447
O      13.40145     15.47450      2.35084         0.935535      3.989488     -0.783808
O      13.34980     15.45215     14.52583         1.221772     -1.542048      0.443079
O       2.03331      3.69570      6.68823        -1.007622     -0.314322     -0.567345
O       2.08856     15.33784      6.54817        -0.746841      2.113312     -0.346659
O      13.61702      3.87543      6.68319         0.265176     -1.666313     -0.801880
O      13.59499      0.00348      6.67205         0.546674     -0.016844     -0.215457
O       1.79916      3.76538     10.52406         0.948812      4.220798      0.041036
O       1.78196      0.12768     10.88386         0.431932     -2.653075     -0.222093
O      13.71479      3.99336     10.32359        -0.501853      0.723504      0.921111
O      13.77044      0.14576     10.83773         0.212521     -0.164602     -0.468804
O       1.90975      7.74957      2.66524        -0.782429     -0.751990     -0.880087
O       1.66121      7.93894     15.17893         0.641065     -0.640735     -2.457977
O      13.69205      7.73690      2.31808         0.257939     -0.398717     -0.187017
O      13.69082      7.81879     14.82952         0.529052     -1.707419      0.118395
O       2.01732      7.82095      6.19426        -1.119207      1.041104     -0.235281
O      13.94067      7.75588      6.12403        -0.465598      0.231041      0.431019
O       1.98960      7.69198     10.49164        -0.144932     -1.695745      0.827333
O      13.85137      7.86418     10.79283        -0.871595     -1.343385     -0.281809
O       2.10014     11.70635      2.19131         0.292756      0.153968     -0.012239
O       2.01863     11.59477     15.05867        -0.411826     -0.212381     -0.825229
O      13.49123     11.73841      2.48703         0.052031     -1.071372     -1.075076
O      13.44343     11.58181     15.08363         0.415966      3.193643     -0.537644
O       1.93291     11.65725      6.67273        -0.206605      0.345598      0.187589
O      13.72119     11.67307      6.55893        -0.807193     -0.484425     -0.142626
O       1.93645     11.62613     10.54988         0.417766      0.434752     -0.211025
O      13.93193     11.64267     10.48816        -0.472213     -1.114446     -0.718947
O       5.86179      3.80444      2.48381         0.378637      2.086916     -0.171712
O       5.59779      3.85998     15.14487         0.721069      0.634084     -1.117544
O       5.94356      0.02837      2.11374        -0.452147     -0.870360      0.775953
O       5.59697      0.12930     14.83800         0.899205     -1.112019     -0.436098
O       5.63549      3.83441      6.48730         0.656832     -0.067344      0.219194
O       5.81313     15.55275      6.57427        -0.075992      0.702565     -0.697991
O       5.80676      4.01673     10.74467         0.102535     -1.315690     -0.916154
O       5.88114     15.51643     10.57730        -1.066562      0.935066     -0.036231
O       6.33793      7.89424      2.24829         0.175703     -4.953361      0.328944
O       5.79510      7.76258     14.67207         1.211104     -0.102343      0.403369
O       5.91077      7.71294      6.57643         0.820022     -1.599884      0.060152
O       6.07851      7.78378     10.73646        -0.708975     -0.737988     -0.242964
O       5.97928     11.51743      2.23545        -0.752103      1.401239      0.717723
O       5.85179     11.61689     14.66691        -0.834169     -0.187341      0.708954
O       5.98466     11.55091      6.43192        -0.444329      0.922456     -0.122361
O       5.83113     11.82264     10.68544        -0.716604     -2.218900     -1.062551
O      10.00367      3.70889      2.44440        -0.949551      1.603950      0.253651
O       9.60662      3.74821     14.61205         1.490127      1.065013      0.930623
O       9.95368     15.42243      2.24011        -0.701672      2.553929      0.489950
O       9.78840     15.47816     14.91779         0.244361      1.202555     -0.078641
O       9.81226      3.61874      6.67360        -0.316862      2.179415     -0.857168
O       9.43862     15.53879      6.56555         0.715626     -1.454930      0.827406
O       9.79571      3.84344     10.91658        -0.676370     -0.823570     -1.179650
O       9.90744     15.56575     10.60251        -0.899474      0.862190      0.054921
O       9.68329      7.80362      2.37063         0.827041     -0.577602      0.443229
O       9.58634      7.66251     14.65228         0.007408     -0.795017      0.893519
O       9.60849      7.69344      6.53817         0.540173     -2.134496     -0.085467
O       9.74085      7.80503     10.69042        -0.080620     -1.373835     -0.253809
O      10.04170     11.67806      2.33985        -0.686198     -0.929725      0.245557
O       9.89751     11.54078     14.57880        -0.790531      0.549446      0.531899
O       9.87548     11.66880      6.49432         0.192304     -0.181661      0.085166
O       9.86703     11.56506     10.74471        -0.305504      0.367388     -0.761993
