  # total energy = -7882.05070822 
CRSYTAL
PRIMVEC
    15.464    0.0000000000000000    0.0000000000000000
     0.0000000000000000   15.464    0.0000000000000000
     0.0000000000000000    0.0000000000000000   17.350608
PRESSURE
-1.78976 -2.06935 -3.21403 -0.135126 -0.054446 0.001243
PRIMCOORD
320 1
Pb       3.77107      3.83968      4.24050         0.463813     -0.037339     -0.047279
Pb       3.68565      3.83049      0.06124         0.238418     -0.394465     -0.131168
Pb       3.93310     15.33871      4.32178        -0.351356     -0.009339     -0.641833
Pb       3.70700     15.44067      0.04732         0.448307      0.107211      0.044015
Pb      15.26624      3.84089      4.26093         0.373466      0.060070     -0.062694
Pb       0.04511      3.99259     17.29156        -0.631121     -0.347254     -0.413780
Pb      15.43482      0.00498      4.35581         0.045897      0.024475     -0.261086
Pb       0.01078      0.02932     17.31243        -0.110520     -0.242043     -0.119541
Pb       3.89615      3.82176      8.69227        -0.028491      0.122209     -0.538411
Pb       3.81560      0.08376      8.58141         0.268404     -0.587797      0.001558
Pb       0.10574      3.99543      8.74877        -0.139661     -0.474940     -0.265887
Pb       0.06542      0.03638      8.67988        -0.005924     -0.493095     -0.370030
Pb       3.92852      3.93819     13.10863         0.062656     -0.779803     -0.836138
Pb       3.78607      0.09963     13.01285         0.023308     -0.411253     -0.581258
Pb      15.44674      3.82915     13.05784        -0.188416     -0.038053     -0.678667
Pb      15.45741     15.35121     13.08045         0.131258     -0.107489     -0.870799
Pb       3.95479      7.69969      4.38136        -0.206983     -0.204625     -0.824366
Pb       4.03458      7.81755     17.15779        -0.779528     -0.170085      0.827698
Pb       0.14170      7.74701      4.41657        -0.707207      0.353306     -0.533132
Pb       0.03263      7.69921     17.28179        -0.115420     -0.000406     -0.407815
Pb       3.73751      7.64399      8.65080         0.205922     -0.469996     -0.399017
Pb      15.21560      7.78831      8.58358         1.049441      0.265371      0.768345
Pb       3.80760      7.72890     12.99080         0.186212      0.385547     -0.536430
Pb      15.44105      7.53203     13.05573        -0.222419      0.243879     -0.956792
Pb       3.84945     11.49114      4.31645        -0.472622      0.457642     -0.159279
Pb       3.80917     11.58270     17.27947         0.683454     -0.051217      0.383459
Pb       0.04215     11.60635      4.29004        -0.466818     -0.597651      0.118061
Pb      15.44750     11.57191      0.00055        -0.690071     -0.008990     -0.229110
Pb       3.84824     11.51031      8.66939        -0.203112      0.403279     -0.467192
Pb       0.08591     11.66590      8.71991        -0.068678     -0.511766     -0.686921
Pb       3.84658     11.63779     12.94275         0.318358     -0.156968     -0.887259
Pb       0.01627     11.43321     13.25339        -0.663358      0.037240     -1.540716
Pb       7.80062      3.87796      4.22490        -0.525295      0.278571     -0.418900
Pb       7.69324      3.81393     17.32324        -0.081017      0.034891     -0.549863
Pb       7.61645      0.02269      4.30885         0.003570     -0.398597     -0.172139
Pb       7.76647      0.03433     17.33952        -0.071924     -0.137348     -0.680241
Pb       7.76331      3.81082      8.65846        -0.523636      0.126231     -0.587381
Pb       7.77715     15.31288      8.57909        -0.164506      0.345472      0.034977
Pb       7.75880      3.93184     13.04880        -0.464326     -0.362723     -0.427717
Pb       7.58697     15.38270     12.93899         0.192469      0.326766     -0.349918
Pb       7.74366      7.65840      4.32573        -0.322022     -0.128992     -0.714257
Pb       7.66953      7.72825     17.23954         0.044635     -0.006710     -0.155309
Pb       7.74616      7.72935      8.65418        -0.485019     -0.038025     -0.537512
Pb       7.80286      7.71625     12.92232        -0.534472      0.547169      0.645657
Pb       7.70740     11.59097      4.29943         0.432664     -0.217821      0.311621
Pb       7.74286     11.70863     17.34819         0.076566     -0.470737     -0.440457
Pb       7.80039     11.54198      8.66730        -0.290773     -0.213573     -0.666479
Pb       7.74224     11.68029     13.03158        -0.365627     -0.563304     -0.674154
Pb      11.71087      3.85433      4.15816        -0.556775      0.213970      0.428793
Pb      11.56252      3.79277     17.24379         0.376395     -0.139027     -0.508493
Pb      11.50438      0.07837      4.31170         0.360286     -0.430161     -0.569023
Pb      11.59423     15.45917     17.25242        -0.382765     -0.376837     -0.166691
Pb      11.37700      3.80799      8.50982         0.944547     -0.177939      0.035677
Pb      11.64697      0.03564      8.64273        -0.115122     -0.254840     -0.383791
Pb      11.49787      3.87471     12.92577         0.420988     -0.679332     -0.013798
Pb      11.51236     15.45284     12.99226         0.549692      0.172716     -0.489409
Pb      11.46092      7.76400      4.38891         0.397376     -0.029416     -0.921811
Pb      11.46241      7.70594      0.03228         0.487554      0.407652     -0.420562
Pb      11.58909      7.75405      8.52815        -0.077786      0.095637     -0.063595
Pb      11.59454      7.68632     12.92302         0.679074      0.513705      0.064356
Pb      11.54330     11.70094      4.26755         0.112147     -0.267712     -0.709936
Pb      11.60127     11.54490      0.03482        -0.022373     -0.010367     -0.134868
Pb      11.75784     11.67312      8.73233        -0.185738     -0.380419     -0.641354
Pb      11.46173     11.53308     13.17708         0.554227     -0.424931     -0.878284
Ti       1.84575      1.93650      2.44107         1.438627     -0.358191     -1.403914
Ti       1.96011      1.87907     15.36955        -0.130779      0.058402     -0.495557
Ti       1.80548     13.47806      2.34302         2.078639      0.684272     -0.394770
Ti       1.93737     13.44974     15.34070        -0.160459      1.785069     -0.937792
Ti      13.43692      1.85406      2.21648         0.273596     -0.183245      0.129768
Ti      13.55412      1.84191     15.28465        -0.688610      1.232235      1.736565
Ti      13.56934     13.44335      2.28130        -2.395804      0.564699     -1.242315
Ti      13.51937     13.54099     15.32479        -0.538715     -0.424132     -0.101112
Ti       1.96371      1.88326      6.56506        -0.668853      0.330756      0.422179
Ti       1.92671     13.47170      6.63873         0.012537     -0.444968     -1.466124
Ti      13.60280      1.87237      6.67316        -0.390921      0.491795     -0.528727
Ti      13.50155     13.51181      6.59854         0.117420     -0.789663     -0.106223
Ti       1.93745      1.92697     10.93808        -0.742000     -0.189109     -0.170562
Ti       1.98289     13.51569     10.92199        -0.085892      0.029142     -0.389328
Ti      13.57522      1.83486     10.86349        -0.199316      0.236374      1.740268
Ti      13.54746     13.42896     10.99982         0.728042      0.407944      0.648473
Ti       1.79634      5.84947      2.24489         0.891056     -0.466997     -0.241507
Ti       2.03202      5.79535     15.26692        -2.035978      0.633557      0.280945
Ti      13.47118      5.77073      2.14125         0.085757      0.858453     -1.419596
Ti      13.48474      5.79880     15.30458         0.395965     -0.410724      0.699284
Ti       1.81298      5.73866      6.50740         1.205916     -0.491734      0.692163
Ti      13.58309      5.70683      6.60990        -1.005941     -0.121603      0.026402
Ti       1.96312      5.71150     10.97905        -1.765415      0.607671      0.158373
Ti      13.47258      5.62046     10.89987         1.373488      1.054599      0.656503
Ti       1.85093      9.57947      2.26821         0.425754      0.278611     -0.327965
Ti       1.91371      9.72098     15.23464        -0.148584     -1.967466      0.260095
Ti      13.47054      9.55439      2.27122        -0.500007      0.715083     -0.746319
Ti      13.50129      9.64089     15.35084        -0.707949     -0.338970     -0.803277
Ti       1.93759      9.53035      6.62603        -1.417624      1.625406      0.206431
Ti      13.53551      9.66085      6.62214         0.640350      0.677762     -0.628300
Ti       1.92934      9.61229     10.90754        -0.337388      0.180283      1.143921
Ti      13.56711      9.66255     11.06221        -0.060893     -0.472419      0.259201
Ti       5.80638      1.85453      2.25261        -1.164969      0.218531      0.659530
Ti       5.77817      1.77151     15.26926         0.120192      0.640408      0.770313
Ti       5.80252     13.37806      2.31255        -0.853331      1.264117      0.028540
Ti       5.75590     13.45970     15.23272         0.514378      0.820811      1.145120
Ti       5.82803      1.88604      6.63047         0.055154     -0.425798     -0.868836
Ti       5.74975     13.42028      6.63759        -0.321673     -0.022235      0.144253
Ti       5.77212      1.90197     10.92597         0.075434     -0.008328     -0.159176
Ti       5.78706     13.47191     10.83168        -0.876462     -0.207407      0.730389
Ti       5.67809      5.75982      2.28068         0.582920      0.044808      0.183237
Ti       5.75425      5.70112     15.31997         1.493942      0.048425     -0.646375
Ti       5.74822      5.75681      6.61463         0.094537     -0.179570      0.369175
Ti       5.77737      5.77869     10.98472        -0.560695     -0.243678     -0.575726
Ti       5.73463      9.66880      2.33612        -0.036894     -1.695560     -1.002787
Ti       5.74350      9.70910     15.22515         1.003658     -0.231029      0.831567
Ti       5.70257      9.55467      6.58710         1.144747      0.790878      1.342228
Ti       5.81495      9.55766     10.92333         0.092968      0.803042      1.126559
Ti       9.60168      1.86673      2.20398         0.621723      0.358492     -0.319233
Ti       9.62819      1.86399     15.17739        -0.020531     -0.085574      1.579506
Ti       9.57844     13.51577      2.27267         1.405375     -0.833286     -0.512907
Ti       9.62063     13.44302     15.23616         0.369826      0.708521      2.157187
Ti       9.63233      1.84484      6.56977         0.393488      0.247067      0.658328
Ti       9.62338     13.46018      6.62742         0.400596     -0.100276     -0.520163
Ti       9.63945      1.92470     10.93199        -0.539449     -0.527793      0.188973
Ti       9.75292     13.52171     11.00927        -0.995525     -0.340135     -0.547627
Ti       9.67098      5.77257      2.21303        -0.552616     -0.189944      1.579912
Ti       9.66487      5.71793     15.30872        -0.595983      0.479766      0.624181
Ti       9.64283      5.76800      6.58758        -0.366375      0.481048      0.208778
Ti       9.64161      5.79520     10.94360        -0.172189     -0.319856      0.175199
Ti       9.57703      9.57559      2.29572         0.872467      0.826708     -0.279717
Ti       9.60920      9.60938     15.33711         0.231771      0.081894      0.070302
Ti       9.65478      9.65249      6.56007        -0.721272      0.243582      0.351830
Ti       9.68800      9.64129     10.89409         0.066870      0.600650      2.009077
O       2.01012      1.93829      0.55428        -0.305537     -0.076537      1.137467
O       2.02652      1.75888     13.58894        -0.351025      0.757464      0.523392
O       1.83743     13.61566      0.50337         0.030594     -0.452811      0.860360
O       1.90425     13.53225     13.53120         0.016377     -0.305507      1.041205
O      13.38633      1.90532      0.45050         0.169938     -0.195134      0.712791
O      13.60709      1.85320     13.58201        -0.230788     -0.199454     -1.392101
O      13.49772     13.52334      0.44867         0.504810     -0.327887      1.063550
O      13.58255     13.67352     13.52707        -0.101241     -0.321850      0.632572
O       1.91792      1.83136      4.80351        -0.313231     -0.038361     -0.497432
O       1.87537     13.49054      4.71189        -0.325689     -0.033585      1.530442
O      13.55879      1.91908      4.85784         0.046851     -0.253880      0.557386
O      13.44401     13.36788      4.80481         0.329186      0.778084      0.754692
O       1.94365      2.10876      9.12995         0.096696     -0.797319      0.511871
O       2.14508     13.50720      9.11301        -0.639160      0.111734      0.537635
O      13.51678      1.93848      9.14512        -0.092542     -0.069055     -1.604969
O      13.44194     13.30763      9.18893         0.135057      0.229457      0.887384
O       1.94115      5.82874      0.41254        -0.162929     -0.236706      1.392564
O       1.91877      5.75220     13.47754        -0.028677     -0.067703      0.412140
O      13.39040      5.74470      0.30385         0.326839     -0.154073      1.665587
O      13.56209      5.87004     13.50136        -0.238059     -0.474568      0.705076
O       1.70804      5.68535      4.73628         0.131952      0.595664      0.567007
O      13.56231      5.67922      4.84956         0.323454      0.313804      0.136422
O       1.87881      5.73045      9.17586         0.342178     -0.134694      0.812021
O      13.50787      5.58700      9.13010        -0.173353      0.263674      0.093982
O       1.89973      9.47686      0.50057         0.059146      0.549384      0.017384
O       1.91726      9.73057     13.45017        -0.141633      0.203007      0.858206
O      13.36934      9.77045      0.46283         0.664977     -0.164184      0.640359
O      13.54814      9.67706     13.44511        -0.134036     -0.124487      2.165661
O       1.81810      9.51867      4.83455         0.080950      0.302915     -0.168878
O      13.72210      9.59143      4.86308        -0.565150     -0.002690      0.159334
O       1.94818      9.62484      9.15852         0.064345     -0.211829     -0.277851
O      13.63455      9.78761      9.27224        -0.429823     -0.138704     -0.148519
O       5.86676      1.73534      0.51991        -0.355141      0.622061     -0.550701
O       5.68621      1.90635     13.51125         0.050888     -0.021066     -0.159610
O       5.90740     13.34483      0.55466        -0.236516     -0.027349      0.437999
O       5.80150     13.34869     13.51678        -0.155738      0.229803     -1.080472
O       5.96594      1.70969      4.81241        -0.370137      0.680930      1.075627
O       5.94004     13.41321      4.85207        -0.559402      0.333344     -0.148809
O       5.56982      1.90409      9.11742         0.577461      0.018295      0.594801
O       5.70081     13.51107      9.03534         0.316469     -0.018520      1.050814
O       5.80019      5.83682      0.48243        -0.347753     -0.219214      0.483700
O       5.87683      5.67927     13.49541        -0.544303     -0.115682      1.143018
O       5.74930      5.78533      4.83111         0.096461      0.011772      0.545302
O       5.70147      5.81528      9.17832         0.070722     -0.171913      1.427061
O       5.61663      9.68772      0.53530         0.266836     -0.091486      0.411028
O       5.82644      9.66669     13.52787        -0.379305      0.304580     -1.273469
O       5.57597      9.62187      4.85372         0.316046     -0.372011     -0.598076
O       5.91155      9.52729      9.18326        -0.422077      0.117357     -0.671340
O       9.63842      1.83943      0.42017        -0.077519      0.205493      1.217808
O       9.64224      1.92762     13.42097        -0.025588      0.043961     -0.321493
O       9.50103     13.42727      0.47786        -0.044783      0.090113      0.568223
O       9.52372     13.45889     13.50892         0.547510      0.074160     -1.418958
O       9.68184      1.75075      4.82994        -0.280121      0.243446     -0.688732
O       9.61561     13.39593      4.81685         0.129598      0.516743      1.050644
O       9.58018      1.91989      9.13274         0.515089      0.255380      0.313360
O       9.63749     13.52574      9.16985         0.016962     -0.076207      1.299211
O       9.57138      5.77298      0.50017         0.326938     -0.054033     -0.943140
O       9.58319      5.74213     13.53061         0.127304     -0.330815     -0.264802
O       9.68039      5.81596      4.83276        -0.386626      0.219385      0.075092
O       9.62750      5.77404      9.16705         0.081173     -0.039022      0.641747
O       9.69178      9.63113      0.50820        -0.346336     -0.203993      0.093715
O       9.80955      9.65186     13.57116        -0.331350     -0.009840      0.285432
O       9.60411      9.46461      4.78866         0.443948      0.127771      0.348394
O       9.53887      9.63023      9.17679         0.258188      0.123796     -0.831539
O       3.88798      2.00777      2.72241        -0.138650     -0.410276     -0.048675
O       3.89112      1.83470     15.83425        -0.553134      0.500080     -0.316081
O       3.81490     13.43843      2.67926         0.712642     -0.291151     -0.063265
O       3.86867     13.50361     15.67031        -0.927050      0.100866      0.282351
O      15.44179      1.88259      2.70749        -0.464543     -0.186780     -0.258172
O      15.39972      1.96518     15.73044         1.163506     -0.317782      0.045514
O      15.39017     13.60751      2.64351         0.974982     -0.342234      0.217243
O       0.01185     13.58468     15.68913         0.162809     -0.523026      0.073364
O       3.79287      1.89770      6.89239         1.227393      0.097618      0.188922
O       3.80636     13.33373      6.86035         0.265798      0.823805      0.045137
O       0.00688      1.67696      7.03672         0.147477      0.626252     -0.347433
O      15.46244     13.55329      7.06691        -0.479543     -0.085567     -0.175174
O       3.74489      2.10084     11.39258         0.958989     -0.890601     -0.056423
O       3.89629     13.55313     11.38698         0.204125     -0.452563     -0.118486
O      15.41379      1.80835     11.24945         1.040472     -0.270116      0.299811
O       0.00429     13.63073     11.32497        -0.437110     -0.395887     -0.273213
O       3.75323      5.69203      2.68531         0.670688      0.392361     -0.245340
O       3.86656      5.83560     15.56794         0.349476     -0.450390      0.115845
O      15.36336      5.81101      2.48744         0.926002     -0.235515      0.220404
O      15.46048      5.76258     15.71885        -0.393827     -0.047269     -0.347382
O       3.80313      5.80096      7.01430        -0.253439      0.201467     -0.325160
O      15.44983      5.86504      7.09079        -0.074052     -0.340878     -0.479484
O       3.77512      5.71448     11.40881         1.055193      0.029951     -0.024600
O      15.42598      5.81252     11.37821        -0.048109     -0.256245     -0.037832
O       3.86015      9.67341      2.69663        -0.653542     -0.509805      0.229886
O       3.80176      9.59937     15.60584        -0.299827      0.626563      0.025156
O      15.35832      9.62959      2.57592         1.385073      0.135782      0.248997
O      15.45136      9.65735     15.69408         0.142152      0.564217     -0.121932
O       3.77086      9.63419      6.99644         1.126283     -0.473975      0.215694
O       0.01090      9.65670      7.07097        -0.625502     -0.200488      0.106625
O       3.90174      9.61910     11.44370        -0.825290     -0.018298     -0.493965
O      15.45287      9.63189     11.37812         0.565121      0.250210      0.166952
O       7.73060      1.87104      2.52010         0.401010     -0.040630      0.656145
O       7.67937      1.84081     15.68437         0.225277      0.210356     -0.227443
O       7.73463     13.45319      2.75656        -1.016793      0.204032     -0.284591
O       7.75564     13.45517     15.56389        -0.501927     -0.233478      0.500325
O       7.76218      1.88761      6.99607        -0.858950      0.175667      0.136377
O       7.66099     13.46694      7.02687         1.165912      0.102981      0.224681
O       7.72519      1.86529     11.24872        -0.852389      0.000371      0.072261
O       7.61320     13.52975     11.47160         0.467892     -0.205503     -0.876556
O       7.73405      5.77733      2.69653        -0.045241      0.002708      0.028274
O       7.77662      5.75914     15.79746        -1.094569     -0.001325     -0.385771
O       7.63729      5.80177      7.08891         1.125990     -0.293728     -0.392331
O       7.61024      5.90596     11.43993         1.541058     -0.776711     -0.827736
O       7.70365      9.49572      2.64716        -0.820531     -0.059500      0.186165
O       7.62591      9.61507     15.61157         1.084412      0.358817      0.297387
O       7.68092      9.68400      6.82602        -0.063480      0.115352      0.537865
O       7.75191      9.57146     11.34935        -0.049142     -0.147035     -0.044250
O      11.56488      1.97622      2.72076         0.091116     -0.447967     -0.307435
O      11.51552      1.83815     15.65644         0.617896      0.266953     -0.311892
O      11.51726     13.41879      2.56959        -0.105956     -0.178591      0.485174
O      11.53499     13.47841     15.66316         0.586897      0.371051     -0.337857
O      11.63180      1.83418      6.97502        -0.547043      0.598793      0.267784
O      11.55461     13.53700      7.07270         0.091348     -0.108922     -0.267994
O      11.53490      2.00409     11.33158         0.033027     -0.074710     -0.028733
O      11.57748     13.49013     11.49278        -0.317211     -0.007480     -0.454019
O      11.68015      5.83364      2.67075        -1.271276     -0.508269      0.052633
O      11.52607      5.74513     15.70328         0.178356      0.099136     -0.424534
O      11.55173      5.79086      6.83032         0.258298      0.087499      0.861757
O      11.56701      5.63567     11.33185        -0.757731     -0.037375     -0.216844
O      11.54647      9.68215      2.66416         0.188787     -0.290499      0.527499
O      11.62223      9.55199     15.79468        -0.259756      0.523304     -0.593687
O      11.56471      9.58892      7.01023         0.305240      0.140155     -0.196414
O      11.60867      9.68273     11.32502        -0.821542     -0.017722     -0.009092
O       1.97568      3.86101      2.75297        -1.158836     -0.180498     -0.662852
O       1.90163      3.87855     15.78932         0.631802     -0.319440     -0.456051
O       2.02154     15.41890      2.71384        -0.564638      0.209030     -0.068670
O       1.90539      0.02907     15.67437         0.001977     -0.750992      0.600032
O      13.52383      3.85218      2.61619        -0.015107     -0.439376     -0.054280
O      13.46710      3.82095     15.67312        -0.136842      0.391868     -0.262942
O      13.38846     15.42987      2.64737         0.343099      0.435836      0.130081
O      13.52677     15.39668     15.71514        -0.062334      0.647934      0.151962
O       1.90537      3.83702      6.89717        -0.573759      0.275731      0.019959
O       1.99322     15.38618      7.04657        -0.171749      0.449254     -0.169702
O      13.68078      3.81986      6.91210        -0.352359      0.048346      0.190039
O      13.48991     15.37200      7.05723         0.061279      0.381374     -0.039123
O       1.76130      3.79149     11.41606         0.093113      0.750124     -0.141776
O       1.99367     15.40644     11.35130         0.059988      1.064228     -0.191200
O      13.70948      3.74587     11.36115        -0.946947      1.103823      0.206845
O      13.42923     15.44142     11.17604        -0.392789     -0.719454      0.433319
O       1.92006      7.71554      2.73671        -0.181917     -0.742033     -0.057992
O       1.81108      7.70410     15.62601         0.532507      0.283586     -0.439932
O      13.49327      7.72259      2.44583        -0.100966     -0.547034      0.339293
O      13.49224      7.73544     15.75580         0.325372     -0.291396     -0.482580
O       1.83287      7.72115      6.96182         0.298890     -1.344431      0.006957
O      13.51832      7.75152      7.03253        -0.334769     -0.914176      0.040264
O       1.87930      7.72709     11.35697         0.620170     -0.553719     -0.026659
O      13.40410      7.65598     11.29959         0.186010     -0.062713     -0.104176
O       1.96894     11.47281      2.60463        -0.953509      1.196270      0.057424
O       1.96102     11.60287     15.70171        -0.481129     -0.656263     -0.061994
O      13.48693     11.62058      2.73070         0.507602     -0.290079     -0.243309
O      13.52402     11.61744     15.74668         0.268887     -0.454334     -0.499197
O       1.85878     11.55699      7.00535         0.037501      0.094010      0.029740
O      13.52323     11.55405      6.96921        -0.291388      0.519599      0.323013
O       1.91002     11.62613     11.13468         0.219326     -0.616669      0.764132
O      13.49223     11.58334     11.57964         0.288156      0.577367     -0.586037
O       5.83102      3.84705      2.77092         0.057200      0.069419     -0.545118
O       5.81509      3.80384     15.66606        -0.293679      0.652117      0.073550
O       5.68691     15.40207      2.55673         0.595490     -0.539276      0.716746
O       5.80236     15.37461     15.63779         0.006670     -0.006604     -0.035224
O       5.78328      3.81693      7.08959        -0.009591     -0.242405     -0.407682
O       5.74241     15.41001      6.94533        -0.021475      0.395546      0.284174
O       5.72801      3.76526     11.31397         0.464918      1.434681      0.192200
O       5.75044      0.03047     11.38628        -0.243642     -0.483470     -0.384807
O       5.69981      7.66616      2.77912         0.011541     -0.099952     -0.204115
O       5.73564      7.76006     15.57565         0.294038     -0.881292      0.315462
O       5.84243      7.66517      7.08849        -0.802172      0.740025     -0.572345
O       5.71436      7.68242     11.45010        -0.173465     -0.381594     -0.286553
O       5.77813     11.47364      2.78780         0.388150      1.263159     -0.149720
O       5.74332     11.64684     15.71329        -0.210948     -1.346852      0.106237
O       5.65662     11.56175      7.02959         0.672875     -1.057798      0.035720
O       5.73374     11.51366     11.26122         0.299473      0.823856     -0.228327
O       9.68026      3.84172      2.65501        -0.096054     -0.293484     -0.077400
O       9.60569      3.77749     15.71560        -0.009634      0.386925     -0.397844
O       9.72613     15.40543      2.56490        -0.364968      0.612047      0.250467
O       9.65385      0.00744     15.73587        -0.267838     -0.861535     -0.706198
O       9.59921      3.87778      6.93619         0.062007     -0.360025      0.211620
O       9.62610      0.02881      7.04490        -0.008673     -1.259432     -0.158015
O       9.46071      3.83071     11.33832         0.576859      1.173935     -0.189063
O       9.58822     15.39937     11.39977         0.463875      0.152329     -0.184809
O       9.69322      7.64250      2.65497         0.134399      0.151905      0.278357
O       9.60781      7.71058     15.71629         0.092454     -0.403374     -0.005169
O       9.59773      7.82011      7.13268         0.252254     -1.446617     -0.518612
O       9.70995      7.72203     11.51750        -0.061196     -0.920218     -1.310338
O       9.49090     11.46260      2.71702         0.363438      0.791643     -0.154377
O       9.75645     11.51403     15.68082        -0.604447      0.388637     -0.228944
O       9.67797     11.59367      6.98118        -0.294707     -0.236929      0.090961
O       9.58549     11.56573     11.38733         0.189640      0.287134     -0.224697
