  # total energy = -7883.38591056 
CRSYTAL
PRIMVEC
    15.464    0.0000000000000000    0.0000000000000000
     0.0000000000000000   15.464    0.0000000000000000
     0.0000000000000000    0.0000000000000000   17.350608
PRESSURE
-1.29935 -1.34132 -0.901686 0.070373 0.156157 0.063529
PRIMCOORD
320 1
Pb       3.84578      3.71121      4.35701         0.337103      0.108367     -0.535194
Pb       3.86035      3.90448     17.20805         0.140683     -0.090597      0.326604
Pb       3.79874     15.37449      4.31299         0.217330     -0.191694     -0.506829
Pb       3.84852     15.40776     17.23216        -0.290144      0.507973      0.090163
Pb       0.05697      3.86145      4.36061        -0.293432     -0.119845     -0.774370
Pb      15.34087      3.74124      0.05875        -0.028542      0.083224     -0.415488
Pb       0.03558     15.44302      4.26493         0.007301      0.135279     -0.500516
Pb      15.36429     15.36738     17.25292         0.049168      0.486907     -0.135795
Pb       3.77162      3.86011      8.55148         0.190809     -0.187967     -0.186795
Pb       3.84694     15.39845      8.79202        -0.073595      0.176939     -0.630604
Pb      15.37609      3.85241      8.49208         0.773757     -0.083137      0.170464
Pb       0.07884      0.09253      8.68281        -0.506929     -0.286677     -0.601391
Pb       3.72336      3.89869     12.96606        -0.115630     -0.122771     -0.064966
Pb       3.78647     15.39846     12.96392        -0.082050      0.121020     -0.200991
Pb      15.27782      3.82592     12.95928         0.312765      0.406905     -0.415499
Pb      15.40242     15.45348     12.96476         0.047385     -0.265323      0.077716
Pb       3.87150      7.62286      4.20806         0.051922      0.108076     -0.100082
Pb       3.76500      7.63757      0.19162        -0.087265      0.163079     -1.034424
Pb       0.01047      7.74612      4.25230        -0.071133     -0.012644     -0.099777
Pb      15.46109      7.74812      0.18088         0.304469     -0.302273     -1.059620
Pb       3.80248      7.65938      8.67134        -0.195856      0.149649     -0.698303
Pb       0.03808      7.82993      8.57556         0.005774     -0.680886     -0.117868
Pb       3.89182      7.72222     13.02019        -0.070105      0.067869     -0.051612
Pb      15.41023      7.73030     13.00873        -0.136198     -0.189406     -0.544583
Pb       3.96149     11.54504      4.40550         0.244684      0.509448     -0.704289
Pb       3.89296     11.64878     17.31369        -0.050511     -0.339964     -0.207082
Pb       0.05333     11.58003      4.34566        -0.026693      0.181440     -0.377360
Pb       0.05209     11.60706      0.01888         0.125927      0.117463     -0.577084
Pb       3.98800     11.54060      8.75479        -0.279794     -0.053246     -0.775107
Pb      15.44910     11.62382      8.59367         0.483594      0.098972     -0.099981
Pb       3.80464     11.64677     13.01284        -0.510040     -0.207786     -0.661256
Pb      15.38719     11.44715     12.90968         0.358681      0.460872     -0.552577
Pb       7.61906      3.80133      4.34486         0.206261      0.026635     -0.133005
Pb       7.67554      3.89493     17.25921        -0.090727     -0.097328     -0.214463
Pb       7.80656     15.34373      4.33838        -0.165226      0.298581     -0.247285
Pb       7.62850     15.37691     17.23960         0.379738      0.263952     -0.425675
Pb       7.57544      3.85185      8.60138         0.113849     -0.132419     -0.516186
Pb       7.71195      0.00791      8.70694         0.289771     -0.000756     -0.267217
Pb       7.64535      3.90363     12.93699        -0.022856     -0.367947      0.217611
Pb       7.71663      0.09920     12.97424        -0.292543     -0.054246     -0.313143
Pb       7.77040      7.70105      4.24001        -0.326646     -0.286050     -0.359380
Pb       7.78789      7.81091      0.05332        -0.180996     -0.460623     -0.458630
Pb       7.57920      7.63527      8.60662         0.392606      0.059846     -0.203571
Pb       7.75631      7.80187     13.04951        -0.611129     -0.097799     -0.488560
Pb       7.80370     11.56946      4.40356        -0.307208      0.061037     -0.697587
Pb       7.74784     11.58139     17.21910        -0.002143      0.137906      0.197967
Pb       7.82023     11.52389      8.67298        -0.170915      0.458400     -0.492937
Pb       7.62271     11.56433     12.89463         0.178015      0.381118     -0.356143
Pb      11.39931      3.90127      4.43124         0.456580     -0.396033     -0.702794
Pb      11.51991      3.80623      0.01976         0.428946      0.149656     -0.098666
Pb      11.64595      0.00944      4.29505         0.055807      0.091577     -0.354069
Pb      11.54132     15.35346     17.30347         0.052818      0.273416     -0.437132
Pb      11.76262      3.87359      8.69499        -0.443195     -0.023142     -0.400932
Pb      11.64943     15.45018      8.71813        -0.155239      0.076496     -0.586767
Pb      11.54221      3.82189     12.94998         0.128453      0.291131     -0.291257
Pb      11.51600      0.01077     12.94530         0.164759      0.498987      0.434684
Pb      11.63694      7.68835      4.23901         0.274649     -0.156651     -0.285610
Pb      11.62939      7.66443      0.00122        -0.042475      0.087378     -0.336718
Pb      11.49501      7.76136      8.61955         0.388835     -0.145802      0.175751
Pb      11.57727      7.62590     13.07841         0.448135      0.040928     -0.857556
Pb      11.64588     11.50114      4.40300         0.354759      0.215889     -0.665041
Pb      11.56620     11.57764     17.27017        -0.343820     -0.146370     -0.088601
Pb      11.70532     11.61977      8.59118        -0.590736      0.022905     -0.054427
Pb      11.59669     11.53815     12.84678         0.280053     -0.523383      0.256371
Ti       2.00739      1.95976      2.27158        -0.618713     -0.990854      1.327265
Ti       1.91162      2.00718     15.29607        -0.095495     -1.340334      0.807654
Ti       1.93870     13.56851      2.24272         0.390294     -0.119216      1.519519
Ti       1.86107     13.55572     15.34994         0.151542     -0.251333     -0.784023
Ti      13.48001      1.97898      2.31279        -0.120116     -0.095477     -0.332228
Ti      13.43474      1.95210     15.30969         0.889302     -0.386067      0.255600
Ti      13.53281     13.46703      2.27553        -0.285928      0.532424      0.971804
Ti      13.43480     13.54123     15.19300         0.509592      0.704840      0.133008
Ti       1.99717      1.79757      6.53362        -0.704590      1.135920      1.356050
Ti       1.96909     13.55940      6.64900        -0.801880     -1.018471     -0.263098
Ti      13.53530      1.90318      6.57775         0.220116     -0.200479      0.988815
Ti      13.50067     13.53837      6.68202         0.734778     -0.113378      0.567743
Ti       1.80668      1.92612     10.93097         0.788831      0.461481      0.453521
Ti       1.82768     13.54570     10.93200        -0.020199     -0.955668      1.576776
Ti      13.50298      1.89966     10.89275        -0.095760      0.444709      0.399161
Ti      13.44605     13.59890     11.00572         1.649179     -0.969316     -0.716160
Ti       1.91924      5.77339      2.33151         0.317898     -0.183871     -0.639399
Ti       1.87448      5.76956     15.36046         0.438969      0.832707     -0.282023
Ti      13.49070      5.73902      2.23094         0.271714     -0.273248      0.503380
Ti      13.52316      5.82413     15.29388         0.396953     -0.403878      0.759002
Ti       1.94172      5.77711      6.58274        -0.538231      0.065019     -0.260808
Ti      13.53809      5.81493      6.62793         0.812746      0.105304      0.241084
Ti       1.90653      5.79325     11.00171        -1.061231     -0.038289     -0.612423
Ti      13.45946      5.83121     10.93648         0.338616     -0.250348      0.024509
Ti       1.99119      9.76211      2.35515         0.009438     -0.710262      0.762893
Ti       1.87882      9.67179     15.34003         0.914748     -0.389158      0.319861
Ti      13.56784      9.65673      2.19415        -0.046829      0.018754      0.395493
Ti      13.51641      9.74223     15.31384        -0.165050     -1.444257     -1.195627
Ti       1.95298      9.67862      6.58055         0.171906     -0.228031      0.847423
Ti      13.54894      9.65487      6.69772        -0.100577     -0.790258     -0.185631
Ti       1.92030      9.59243     10.86331        -0.258343      0.943001      1.910962
Ti      13.54371      9.64615     10.80598         0.356421     -0.467007      1.261132
Ti       5.84210      1.77901      2.25820        -1.029543      0.934260      1.592721
Ti       5.76471      1.88843     15.26702         0.313583      0.619151     -0.840026
Ti       5.87370     13.52428      2.31118        -0.999389     -0.827901      1.687105
Ti       5.72471     13.50519     15.20451         0.229702      0.134120     -0.564966
Ti       5.81759      1.83771      6.57987        -0.334998      1.280759     -0.471034
Ti       5.75380     13.57260      6.64209         0.383147     -1.158643     -0.839164
Ti       5.67426      1.99525     10.98888        -0.082293     -0.640489     -0.554716
Ti       5.72616     13.52720     10.93193         0.528571      0.438924      0.535820
Ti       5.78889      5.68733      2.29552         0.028448     -0.255640      1.399371
Ti       5.82700      5.84550     15.38408        -0.744964     -0.006597      0.818704
Ti       5.75771      5.82952      6.51476        -0.204527     -1.397695     -0.270402
Ti       5.67689      5.79041     10.93862         0.282192      0.693619      0.976926
Ti       5.80170      9.68813      2.25006        -0.049309      0.155592      0.857283
Ti       5.73856      9.62471     15.35103        -0.522658     -0.280398     -0.356462
Ti       5.84070      9.62145      6.62275        -0.966538      0.668044      0.412855
Ti       5.79897      9.69509     10.96131        -0.868253     -1.020832     -0.112277
Ti       9.56649      1.86376      2.24674         1.318668      0.275458      0.955195
Ti       9.66227      1.97389     15.37215        -0.630285     -0.895375     -0.881597
Ti       9.70557     13.46697      2.30753        -0.052198      0.228959      0.838329
Ti       9.57551     13.53578     15.12639         0.729955      0.680585      0.472404
Ti       9.69142      1.96171      6.73844         0.229804      0.185932     -0.016804
Ti       9.63640     13.59156      6.65332         0.073239     -0.414020      1.311469
Ti       9.61659      2.01427     10.97460         0.338304     -0.766793      0.552384
Ti       9.71954     13.58037     11.11870        -1.887373      0.081397     -0.234572
Ti       9.61140      5.70370      2.31427         0.359120      0.743010     -0.121448
Ti       9.68092      5.83692     15.34586         0.034339     -0.606057      0.695801
Ti       9.76747      5.81469      6.66415        -1.147284     -1.015975     -0.413975
Ti       9.52861      5.82409     11.01121         1.236778      0.132041     -0.856733
Ti       9.71376      9.66084      2.37536        -0.213441      0.006119     -0.381758
Ti       9.62123      9.64441     15.30287         0.440286      0.266638      0.340741
Ti       9.65892      9.63525      6.63112         0.182471      0.429843      0.553608
Ti       9.70219      9.65239     10.95674        -0.032723     -0.092056      0.790234
O       2.00226      1.82285      0.56127        -0.101390      0.200587     -1.287820
O       2.00418      2.01304     13.55132        -0.336175     -0.005650     -0.143675
O       1.89312     13.59673      0.50021        -0.094125     -0.312754     -1.272401
O       1.89905     13.49165     13.58105         0.256456     -0.141904     -0.631791
O      13.51623      2.03490      0.49915         0.089366     -0.254182      0.377086
O      13.58426      1.83825     13.53532        -0.408349      0.172471      0.004820
O      13.48621     13.55619      0.54216         0.133722     -0.255879     -0.772435
O      13.58177     13.69177     13.43783        -0.317905     -0.537987      0.066232
O       2.00319      1.73720      4.80199        -0.383196      0.436327     -0.649886
O       1.84162     13.56441      4.86945         0.151302     -0.130228      0.513447
O      13.43612      1.83447      4.85662         0.197621      0.291455     -1.050552
O      13.45072     13.47361      4.95632         0.167758     -0.056527     -1.330228
O       1.77415      1.81514      9.19633         0.465425      0.042516     -0.987243
O       2.04096     13.55194      9.22970        -0.093443      0.439405     -1.546334
O      13.60088      1.86781      9.12712        -0.403656      0.145631     -0.038037
O      13.50699     13.56535      9.20155        -0.574124     -0.241587      0.439642
O       2.17372      5.81373      0.53893        -1.194490     -0.167705      0.455447
O       2.02125      5.77730     13.57153        -0.319226     -0.054456      0.253503
O      13.58197      5.68851      0.46503        -0.287101      0.392978     -0.270287
O      13.53923      5.76736     13.52015        -0.410814      0.072902     -0.162320
O       1.88382      5.79405      4.79532        -0.035202     -0.161910     -0.244072
O      13.45284      5.77126      4.89080         0.280244      0.163952     -0.756672
O       1.98465      5.90449      9.19389         0.014975     -0.350904      0.880188
O      13.44712      5.68257      9.14566         0.145969      0.283563      0.264085
O       1.95191      9.65928      0.62947        -0.265195      0.196250     -1.413251
O       1.95182      9.74546     13.58793        -0.168071     -0.088654     -0.264689
O      13.50928      9.62914      0.39787         0.345066      0.158097      0.337402
O      13.52341      9.58219     13.45263        -0.126394      0.642384      1.872423
O       1.77667      9.64830      4.83660         0.320396      0.274347     -0.867014
O      13.51329      9.59883      4.94391         0.009385      0.461812     -0.734285
O       1.83953      9.61632      9.15420         0.370266     -0.403426     -1.281087
O      13.57235      9.53797      9.04679        -0.281674      0.359348     -0.127031
O       5.80503      1.81469      0.53629         0.099309     -0.018111     -1.249901
O       5.95049      1.90980     13.46880        -0.770206      0.240254      0.121551
O       5.87107     13.54122      0.59735         0.104596     -0.041839     -1.929864
O       5.73242     13.48549     13.40990        -0.362218     -0.315788      0.774587
O       5.81935      1.97947      4.78235         0.155444     -0.435093      1.437539
O       5.72780     13.46875      4.82888         0.488145      0.099500      0.796067
O       5.83263      1.98325      9.18179        -0.206134     -0.336224      0.736373
O       5.66311     13.49933      9.14688        -0.067132      0.408048     -0.306977
O       5.89486      5.66054      0.53931        -0.077537      0.283803     -0.397505
O       5.67828      5.89333     13.68088         0.327230      0.012580     -1.476000
O       5.74462      5.79138      4.72332         0.073529     -0.137935      0.733585
O       5.49619      5.79688      9.21101         0.679927      0.146851     -0.692324
O       5.74351      9.73615      0.52431         0.295735     -0.170161     -0.987151
O       5.81268      9.65810     13.53252        -0.242831      0.152909      0.553106
O       5.86913      9.72548      4.87619         0.102525     -0.171095     -0.225601
O       5.76170      9.59074      9.18271         0.105338      0.050371     -0.267275
O       9.74242      1.81537      0.52385        -0.630656      0.196009     -0.868985
O       9.65521      2.00626     13.58389         0.129508     -0.016987     -0.001652
O       9.48479     13.46789      0.60248         0.465825      0.110530     -1.466060
O       9.58421     13.62317     13.36240         0.012732     -0.478545      0.342761
O       9.72291      2.04425      4.98987        -0.030149     -0.391664     -0.730989
O       9.65337     13.66392      4.94130        -0.163024     -0.532044     -1.612772
O       9.65278      1.86151      9.25387        -0.065816      0.219963     -1.208230
O       9.74910     13.62738      9.39356        -0.156145     -0.013066     -1.635435
O       9.58955      5.81379      0.54799         0.005768     -0.196322     -0.298028
O       9.66582      5.78723     13.59993         0.242910      0.112598     -0.897396
O       9.75675      5.69366      4.86388        -0.073064      0.577600      0.915181
O       9.73028      5.92614      9.23683        -0.472357     -0.169263      0.067467
O       9.75406      9.80143      0.62598        -0.272490     -0.559480     -0.579104
O       9.63164      9.71783     13.55396         0.029805     -0.406215     -0.416267
O       9.64986      9.66183      4.87453        -0.102149      0.058091     -1.055212
O       9.75133      9.55525      9.23207        -0.558124      0.075694     -0.321421
O       3.87611      1.87719      2.75776         0.467790      0.071770     -0.190238
O       3.88017      1.89694     15.73792        -0.449379      0.196180     -0.266122
O       3.80961     13.55905      2.72093         0.291070     -0.503328     -0.264422
O       3.83987     13.55723     15.69080         0.747925     -0.666958     -0.049380
O       0.09640      1.99307      2.72721        -1.190520     -0.364896      0.101968
O      15.41624      1.95332     15.76103         0.446557     -0.221221     -0.258487
O      15.41684     13.57810      2.63166        -0.133402     -0.228273      0.233399
O      15.43778     13.55588     15.62772        -0.822171     -0.387979      0.547094
O       3.83606      1.79445      6.86240         1.356673      0.086381      0.609556
O       3.88758     13.59218      6.95886        -0.291597      0.097962      0.495275
O       0.00887      1.88945      6.96182        -0.011150     -0.147487     -0.105227
O       0.05670     13.44345      7.07590        -0.455343      0.212082     -0.064750
O       3.74412      2.09804     11.23263         1.386281     -0.740113      0.257244
O       3.78948     13.45890     11.34911         0.014898      0.258775      0.332433
O      15.39867      1.95995     11.25066        -0.163000     -0.191148      0.725722
O      15.35329     13.55022     11.36665         1.085191      0.169939     -0.031836
O       3.82093      5.70439      2.65236         1.070228      0.049295      0.328894
O       3.83361      5.91198     15.75361         0.537401     -0.588153      0.290673
O      15.43031      5.82457      2.56497         0.638063     -0.122785      0.439268
O      15.42955      5.67137     15.71388         0.053830      0.011371      0.003907
O       3.80910      5.64774      6.93160         0.845739      0.961535      0.186704
O       0.02877      5.68246      6.99229         0.049277      0.390622     -0.032106
O       3.81338      5.89629     11.39225        -0.273165     -0.397670      0.253072
O      15.44230      5.78356     11.46832        -0.265003     -0.193034     -0.319605
O       3.91639      9.74734      2.66296        -0.705154     -0.504607      0.514539
O       3.83598      9.62692     15.76106         0.093110      0.306941     -0.158616
O       0.03600      9.64013      2.62980        -0.834841     -0.012305      0.076733
O      15.46282      9.63753     15.65469        -0.966912      0.731226      0.470538
O       3.83724      9.53391      6.93033         0.604020      0.433215      0.170905
O       0.00400      9.62139      7.01717         0.198956      0.305240      0.072164
O       3.81940      9.70578     11.24204        -0.169879     -0.185343      0.277707
O      15.38213      9.56440     11.21797         0.433473      0.502434      0.524698
O       7.69531      1.90596      2.69173         1.027860     -0.616441     -0.047476
O       7.63717      1.90503     15.66576         0.832974      0.046084      0.540634
O       7.77901     13.56541      2.74102        -0.520681     -0.307337      0.427863
O       7.70777     13.54965     15.53224        -0.433331     -0.164589      0.350780
O       7.79128      1.90347      7.05182        -1.108423      0.094871      0.256309
O       7.71706     13.55287      7.07596         0.019612     -0.333636      0.162779
O       7.76613      2.02580     11.32846        -0.934514     -0.250542      0.254142
O       7.57046     13.57040     11.32985         0.819161      0.036423      0.037093
O       7.74803      5.82052      2.78534        -0.783534      0.077217     -0.202278
O       7.82879      5.87411     15.71549        -1.311082     -0.460229      0.277111
O       7.62692      5.84036      6.99615         0.902936     -0.319081      0.177954
O       7.65514      5.77768     11.32889        -0.081304      0.082357     -0.044691
O       7.72147      9.72625      2.55173         0.151399     -0.664549      0.726710
O       7.68524      9.59912     15.66828         0.792898      0.373516      0.413831
O       7.72935      9.61498      7.08219        -0.388085     -0.203263      0.153799
O       7.66032      9.66199     11.31505         1.265641     -0.088909      0.245736
O      11.57785      2.09214      2.59851        -0.779066     -0.429156      0.448882
O      11.57004      1.79107     15.75253        -0.208002      0.529272     -0.060058
O      11.62584     13.41520      2.67112        -0.490787      0.381302      0.274845
O      11.53836     13.63752     15.47229        -0.452009     -0.574846      0.402425
O      11.66555      1.94395      7.05909        -0.399806     -0.075246      0.328984
O      11.56830     13.41911      6.99513        -0.078808      0.063189      0.526470
O      11.57672      1.79435     11.29564         0.506833      0.715249      0.214119
O      11.56918     13.40368     11.43741         0.757450      0.884299      0.022300
O      11.63690      5.80560      2.63555        -0.681893     -0.165053      0.131565
O      11.58016      5.78264     15.84547         0.253117      0.293743     -0.473586
O      11.64606      5.67231      6.98426        -0.927344      0.418237      0.317409
O      11.56432      5.82560     11.36267         0.057224     -0.090068      0.445911
O      11.65135      9.71229      2.63387        -0.399580     -0.289939      0.520504
O      11.58125      9.63663     15.75318        -0.052989     -0.094837     -0.242947
O      11.54166      9.68103      7.00200         0.606593     -0.109011      0.208320
O      11.66869      9.62745     11.18365        -1.565854      0.374766      0.627242
O       1.97266      3.82067      2.68430        -0.262332      0.714857      0.261686
O       1.99507      3.84264     15.74531        -0.107131      0.080141     -0.062675
O       1.93491     15.38350      2.71720        -0.293634      0.923043      0.045764
O       1.99093     15.41809     15.59489        -0.423425      1.132252      0.477196
O      13.51436      3.87877      2.61219         0.617763      0.176415      0.509625
O      13.41319      3.81859     15.59573        -0.011110     -0.001392      0.240024
O      13.39336      0.08429      2.65393         0.432995     -0.959042      0.131877
O      13.44686     15.39746     15.70397         0.518725      0.357196      0.309817
O       2.05320      3.78802      6.94903        -0.930684     -0.271467     -0.186967
O       1.91486     15.43429      7.03768        -0.033210     -0.384820      0.373886
O      13.64917      3.85243      6.94927        -0.802167     -0.636426      0.193503
O      13.52918     15.37127      7.00619        -0.153332      0.960843      0.146070
O       1.88469      3.82801     11.34312        -0.088046      1.248387      0.126826
O       1.94692      0.03489     11.35283        -0.165701     -0.480640      0.166475
O      13.46459      3.83771     11.28066        -0.126155     -0.253912      0.327887
O      13.62040     15.45751     11.28241        -0.876731      0.404512      0.197024
O       2.01499      7.72196      2.61234        -0.218909     -0.092386      0.400256
O       1.84896      7.68354     15.80373        -0.145899      0.585101      0.038899
O      13.54549      7.75973      2.62894        -0.142760     -0.014014     -0.077853
O      13.58121      7.69585     15.56553        -0.429332      0.465235      0.614848
O       1.93265      7.68754      6.91140        -0.175696      0.050644      0.433081
O      13.58634      7.69829      6.94759        -0.339918     -0.058694      0.423512
O       1.74312      7.74417     11.39133         1.052056     -0.209325     -0.147041
O      13.47510      7.68393     11.31865         0.160646      0.490572     -0.033644
O       1.85807     11.61724      2.71674         0.023384      0.227810     -0.022007
O       1.92906     11.62448     15.77743        -0.161824     -0.687114      0.301972
O      13.50269     11.55697      2.66548         0.530210     -0.071895      0.054319
O      13.34057     11.63492     15.69816         0.987424     -0.305083     -0.504289
O       1.96496     11.57410      7.06172         0.158761      0.014771     -0.180848
O      13.55277     11.54095      7.09377        -0.147304      0.402670     -0.004898
O       1.78281     11.61391     11.17529         0.070079     -0.539598      0.722552
O      13.57128     11.61131     11.38737        -0.542776     -0.652581     -0.416753
O       5.92121      3.74690      2.73290        -0.736241      0.990829     -0.456066
O       5.77408      3.87482     15.58462         0.195002      0.044528      0.597786
O       5.75076     15.38015      2.65666         0.442229      0.576279      0.326116
O       5.69916     15.43936     15.49923         0.481254     -0.673743      0.629862
O       5.74398      3.84450      7.04359         0.332307     -0.341217     -0.183541
O       5.86384     15.45694      6.91671        -0.022788      0.186667      0.490702
O       5.75515      3.89414     11.33365         0.030580      0.235983      0.300356
O       5.67541      0.04398     11.36430        -0.104518      0.183855     -0.367494
O       5.72161      7.62431      2.69124         0.375496      0.962587     -0.378599
O       5.79851      7.75113     15.74813         0.302105      0.197224      0.335900
O       5.77459      7.64184      6.93621        -0.240456      1.140965      0.352438
O       5.74874      7.71226     11.42897         0.188186      0.105670     -0.168895
O       5.66478     11.60623      2.67121         0.880396     -0.100412      0.281761
O       5.77738     11.61900     15.74174        -0.021379     -0.086818     -0.320951
O       5.72017     11.59119      6.96712         0.314795     -0.493411      0.490075
O       5.78705     11.58667     11.17911        -0.226517      0.029923      0.602236
O       9.51822      3.89397      2.69635         0.505829     -1.470730     -0.004462
O       9.68515      3.83608     15.74568        -0.118545      0.348026      0.166985
O       9.67363     15.43354      2.68538         0.180667      0.546029      0.214309
O       9.60607      0.01759     15.59911        -0.214320     -0.863337      0.382800
O       9.63308      3.87476      7.02961         0.128692      0.631218      0.548180
O       9.66567     15.43926      7.01634         0.248099      0.341638      0.571231
O       9.71128      3.92015     11.41814        -0.153653     -0.269183     -0.170363
O       9.68846      0.03236     11.40656        -0.405996      0.178175      0.226737
O       9.71231      7.61451      2.68455        -0.281805      1.956406      0.361960
O       9.65822      7.72346     15.73590         0.264116      0.826317      0.112802
O       9.67709      7.73840      7.00103         0.007336     -0.925514      0.146405
O       9.61123      7.69972     11.48551         0.123717      1.016795     -0.011917
O       9.60256     11.59265      2.71202         0.332462     -0.409597      0.737091
O       9.64956     11.60143     15.63216        -0.050683      0.140319      0.067053
O       9.58625     11.51338      7.03928        -0.016490      0.884178      0.211800
O       9.58850     11.64761     11.30400         0.097972     -1.691459      0.403133
