  # total energy = -7880.22277011 
CRSYTAL
PRIMVEC
    15.464    0.0000000000000000    0.0000000000000000
     0.0000000000000000   15.464    0.0000000000000000
     0.0000000000000000    0.0000000000000000   17.350608
PRESSURE
-1.17654 -0.826099 -3.26965 -0.119663 -0.102467 0.039323
PRIMCOORD
320 1
Pb       4.02563      3.88872      4.50669        -0.284495      0.400371     -0.545329
Pb       4.07634      3.76842     17.12910        -0.573649      0.410579      1.049445
Pb       3.77029      0.22516      4.27982         0.073976     -1.186113     -0.207516
Pb       4.03062      0.11195     17.26800        -0.902641     -0.911031      0.250992
Pb       0.23044      3.82101      4.50188        -0.523300      0.431385     -0.833416
Pb      15.39021      3.64106     17.29500         0.131575      1.098460      0.248743
Pb      15.34551     15.44385      4.15939         0.619969     -0.468856      0.348831
Pb      15.38953     15.45790     17.33735         0.607563      0.069147     -0.349293
Pb       3.84739      3.91860      8.61914        -0.064613     -0.115817      0.006376
Pb       3.86656     15.34603      8.56760        -0.372328      0.335028     -0.248924
Pb      15.34036      3.74100      8.54723         0.557660      0.018629      0.594360
Pb      15.31559     15.38264      8.58859         0.482626      0.135377     -0.065902
Pb       3.76521      3.71463     12.83701         0.451364     -0.102614      0.726354
Pb       3.99898     15.26647     13.05330        -0.460104      0.205463      0.148899
Pb       0.08768      3.99483     12.91620         0.044259     -0.435893      0.057331
Pb       0.07866      0.16518     12.95129        -0.055301     -0.623356      0.297980
Pb       3.71234      7.82910      4.22934        -0.200818     -0.332972      0.521430
Pb       3.59711      7.62221      0.01745         0.912155      0.056029      0.610727
Pb      15.30582      7.72094      4.24336         0.548606      0.130015      0.182730
Pb      15.38105      7.69265     17.24539        -0.122556      0.085535      0.435891
Pb       4.01818      7.88864      8.66850        -0.473914     -0.430373      0.175043
Pb       0.20898      7.56335      8.81904        -0.423001      0.289508     -0.241669
Pb       3.89255      7.66574     12.85235        -0.014723      0.254654      0.626935
Pb       0.08121      7.92674     12.83769        -0.122765     -1.230043      1.402371
Pb       3.94180     11.68252      4.31350        -1.150523     -0.099861     -0.026630
Pb       3.97760     11.52979     17.31043        -0.592456      0.638441     -0.088635
Pb      15.24533     11.62652      4.32917         0.490046     -0.027651     -0.327060
Pb       0.00096     11.62731     17.26038         0.049658     -0.435996      0.358742
Pb       3.83772     11.62048      8.71599        -0.175670      0.066455     -0.637946
Pb      15.23425     11.53225      8.51841         0.542403     -0.309983      0.710971
Pb       3.84658     11.45168     13.03823        -0.108165      0.448420     -0.104979
Pb      15.37828     11.74525     12.75002        -0.092476     -0.432573      1.242962
Pb       7.67014      3.78976      4.43565        -0.199314      0.517589     -0.689454
Pb       7.78055      3.89359     17.33547        -0.498257     -0.447701     -0.199388
Pb       7.82887     15.44268      4.22666        -0.235832     -0.506421      0.050290
Pb       7.60306      0.07065      0.13252         0.307945     -0.356587     -0.296347
Pb       7.83394      3.93228      8.53258        -0.828339     -0.280769      0.329635
Pb       7.72621      0.12864      8.59626        -0.094401     -0.057995      0.208644
Pb       7.78708      3.73872     12.95113        -0.610218      0.134647      0.007650
Pb       7.97537     15.46373     13.14356        -1.044482     -0.044414     -0.736508
Pb       7.72018      7.88368      4.30047        -0.259841     -0.940020      0.240310
Pb       7.81905      7.69872      0.00636        -0.704561     -0.216478     -0.076782
Pb       7.90441      7.63559      8.71709        -0.670447      0.162429     -0.048365
Pb       7.68448      7.65173     12.99668        -0.502086      0.277468     -0.262822
Pb       7.73634     11.64104      4.30878         0.043310      0.267274     -0.135007
Pb       7.63907     11.41619     17.31718         0.190952      0.299596     -0.094559
Pb       7.59267     11.73341      8.52350         0.154439     -0.599037      0.452586
Pb       7.75677     11.47007     12.91217         0.316861     -0.059200      0.689897
Pb      11.37294      3.77882      4.49395         0.966013      0.240161     -0.658652
Pb      11.50570      3.97799      0.01649         0.459904     -0.562190     -0.430679
Pb      11.66303     15.34732      4.31383        -0.461415      0.166900      0.053030
Pb      11.55161      0.08489      0.15602        -0.154401      0.203600     -1.071058
Pb      11.73271      3.91391      8.80918        -0.503578     -0.337099     -0.406796
Pb      11.41007     15.36762      8.46202         0.398891      0.191275      0.785845
Pb      11.66942      3.89155     13.11954         0.042684     -0.410328     -0.643172
Pb      11.52210     15.32052     13.18633         1.041942      0.445451     -0.632259
Pb      11.59933      7.64846      4.18598        -0.060905      0.929885      0.668171
Pb      11.59656      7.63487     17.22653         0.428724      0.556945     -0.159346
Pb      11.58180      7.53386      8.78623         0.276519      0.968598     -0.040429
Pb      11.38221      7.66578     13.07310         1.062245      0.397293     -0.160164
Pb      11.50037     11.59830      4.29388        -0.169018     -0.230162     -0.066513
Pb      11.48309     11.68949     17.27884         0.286731     -0.444569     -0.459009
Pb      11.26872     11.50870      8.53048         1.157175     -0.298414      0.634997
Pb      11.61326     11.65777     12.75703         0.128887     -0.129039      0.821300
Ti       1.96285      1.94635      2.23477         0.167887     -0.561913     -0.925418
Ti       1.90587      2.00064     15.32233         0.515824     -1.502177     -1.469763
Ti       1.83549     13.45023      2.26430         0.980579      0.626434     -0.368947
Ti       1.97913     13.57700     15.33070         0.778807      0.601561      0.438362
Ti      13.54690      1.98922      2.34444        -0.288975      0.610643      1.114257
Ti      13.45975      1.89280     15.29753        -0.175943     -0.237538      1.740760
Ti      13.36616     13.48057      2.14797         0.649770     -0.421995      0.221511
Ti      13.61444     13.48345     15.32441        -0.965967      0.849292     -1.071129
Ti       1.88823      1.91421      6.57237         0.375689     -0.511600      1.598264
Ti       1.84195     13.46555      6.67065         0.127801      0.624123     -2.118705
Ti      13.49233      1.81218      6.64382        -0.337112      0.801490     -2.038986
Ti      13.45345     13.35184      6.63928        -0.428635      0.742159     -0.112465
Ti       1.91684      1.80654     10.82598         0.268919      0.961529     -0.364356
Ti       1.92622     13.46311     10.99297         0.118044      0.736212     -1.313782
Ti      13.58571      1.88187     11.03075        -0.767322     -0.133613      0.101241
Ti      13.48612     13.56111     10.80576         0.189661      1.076703      0.369544
Ti       1.96400      5.73073      2.33365        -0.663725      0.273958     -0.106018
Ti       1.93107      5.76765     15.31710        -0.306708      0.453482     -0.860742
Ti      13.48723      5.74940      2.40902         0.745376     -0.454317     -1.400651
Ti      13.54949      5.73650     15.27604         0.326329     -0.092074     -1.125170
Ti       1.85913      5.81267      6.68834         0.735929     -0.181123     -1.200832
Ti      13.49187      5.80447      6.73357        -0.445849     -0.086744      1.705113
Ti       1.99956      5.76586     10.99781        -0.473103     -0.405567     -1.436934
Ti      13.54528      5.74726     11.10066         0.109259      0.237845      0.162144
Ti       1.76970      9.69798      2.32717         0.491531     -0.172865      0.112420
Ti       1.90668      9.70314     15.38228        -0.542107     -0.155925     -0.707232
Ti      13.39425      9.68404      2.21250         0.386428     -0.442388     -0.958599
Ti      13.54381      9.66727     15.21507        -0.165900      0.255381     -0.831027
Ti       1.86022      9.68723      6.67046         0.361664      0.015624      0.357365
Ti      13.45377      9.46959      6.71895         0.056617      0.419778     -0.391740
Ti       1.92826      9.65920     10.86698         0.185082     -0.525528     -0.152595
Ti      13.49973      9.59290     11.01314        -0.405744     -0.431721     -1.445700
Ti       5.81699      1.89467      2.40632         0.415041     -0.174211     -0.311700
Ti       5.81538      1.82187     15.21999         0.144072      1.154001     -0.251606
Ti       5.67792     13.47225      2.33291         0.492661      1.037837     -0.110460
Ti       5.88783     13.44930     15.31831        -1.718704      0.365132     -1.074975
Ti       5.75334      1.92186      6.65193        -0.226319      0.633626     -0.107188
Ti       5.77052     13.52895      6.47690        -0.324165      0.483383     -0.742170
Ti       5.78722      1.74555     11.03820         0.443966      1.160123     -1.156507
Ti       5.85337     13.45055     11.06318         0.132010      0.446714      0.042131
Ti       5.76057      5.82152      2.40321         0.135516     -0.309393     -0.948051
Ti       5.77890      5.80893     15.29362        -0.059996     -0.619922     -1.315416
Ti       5.69455      5.90959      6.65816         0.873466     -1.490379      0.273317
Ti       5.77851      5.68328     10.99317         0.417574      0.414398      0.081097
Ti       5.67999      9.62766      2.36246         0.112958      0.027050     -0.452261
Ti       5.76879      9.46790     15.43111         0.227331      0.821908     -0.666239
Ti       5.76255      9.69560      6.55773        -0.375710     -0.022554      1.470747
Ti       5.83040      9.71494     11.02399         0.363396     -1.603969     -0.153449
Ti       9.74220      1.92643      2.46099        -1.017361     -0.182342     -1.319870
Ti       9.56242      1.81917     15.43016         0.651422      0.310502     -0.170253
Ti       9.55632     13.40647      2.17351         0.210057      0.706252      0.642867
Ti       9.64409     13.50800     15.35684         0.297209      0.096329      1.021591
Ti       9.71374      2.01276      6.64361         0.181190     -0.666717      0.026337
Ti       9.56658     13.48168      6.57778         0.409081      0.294567     -1.481777
Ti       9.75695      1.94836     10.99242        -0.108448     -0.487189     -1.398510
Ti       9.61884     13.56297     10.89033        -0.541149      0.390345     -1.299333
Ti       9.58529      5.83869      2.26884        -0.274832     -1.054451      2.848174
Ti       9.59655      5.74740     15.22874        -0.083851     -0.074900     -0.118443
Ti       9.61853      5.85115      6.54938         0.209210      0.027788      1.544242
Ti       9.70987      5.77220     11.08760        -0.568995     -0.287225      0.381364
Ti       9.54276      9.60448      2.30648         0.585461      0.669666      0.218554
Ti       9.65332      9.60962     15.32739        -0.059457      0.683728     -0.666101
Ti       9.60731      9.57497      6.57186         0.408903      0.081262     -0.660075
Ti       9.75182      9.62566     10.97115        -1.059169     -0.147317      0.204679
O       1.99815      1.94778      0.40933        -0.275245      0.180588      1.267307
O       1.88476      1.86287     13.45424         0.098885      0.404317      2.228938
O       2.08044     13.40627      0.48494        -0.714006      0.218789      1.218633
O       1.92986     13.67879     13.52444        -0.011377     -0.703579      0.768716
O      13.46085      1.95891      0.56718        -0.015906     -0.066215      0.490039
O      13.59332      1.96560     13.59534        -0.211074     -0.221945     -0.786967
O      13.35662     13.45592      0.33847         0.112795      0.089822      1.424414
O      13.60080     13.72804     13.49289        -0.242421     -0.746323      1.696707
O       1.95361      1.99308      4.81470        -0.162426     -0.367797     -0.351874
O       1.63566     13.44564      4.82554         0.702827      0.001876      1.838582
O      13.41859      1.84751      4.79385         0.097342     -0.149698      1.539166
O      13.39587     13.44358      4.83775         0.241699     -0.210737      0.811084
O       1.85205      1.90628      9.01085        -0.005866     -0.196384      1.451565
O       2.02602     13.45005      9.17750        -0.073978      0.229698      1.280462
O      13.62609      1.83009      9.26807        -0.133592      0.375928     -0.621665
O      13.50457     13.62971      9.00015        -0.129751     -0.422892      1.163396
O       1.97896      5.73813      0.53106        -0.115018     -0.029086      1.137923
O       1.89291      5.93290     13.51721         0.078209     -0.460741      1.380238
O      13.50777      5.68745      0.57707        -0.386680      0.156469      0.997309
O      13.55231      5.60216     13.43013         0.007227      0.435876      2.343364
O       1.81296      5.71140      4.81972         0.012593      0.161257      2.038403
O      13.55115      5.96842      5.04141        -0.282547     -0.080627     -1.346528
O       2.07024      5.72512      9.17517        -0.268089      0.117012      0.441664
O      13.44519      5.57968      9.31260         0.027295      0.554916      0.428520
O       1.82175      9.62861      0.58458        -0.031746      0.264954     -0.431343
O       1.78156      9.69017     13.59353         0.386330     -0.148281      0.656754
O      13.49206      9.66342      0.40285        -0.347843     -0.124721      1.561197
O      13.69825      9.68580     13.36592        -0.485660      0.214724      1.685518
O       2.04075      9.72563      4.91928        -0.631761     -0.088976      0.285386
O      13.48669      9.48030      4.91252        -0.188720      0.043665      0.860628
O       1.93326      9.62324      9.09477        -0.103416      0.262851      0.907362
O      13.42684      9.65091      9.19524         0.369777      0.227008      1.696338
O       5.92878      1.75686      0.58518        -0.228724      0.654419      1.051729
O       5.74430      1.87892     13.46092         0.257092     -0.148709     -0.169822
O       5.66987     13.59853      0.53466         0.309735     -0.330807      0.387259
O       5.67731     13.57283     13.48571         0.505815     -0.637751      1.237951
O       5.73852      1.98940      4.82098         0.138578     -0.137643      1.150251
O       5.81124     13.56017      4.66002        -0.027101     -0.305050      2.040591
O       5.91240      1.80071      9.20724        -0.366538     -0.159353      1.151037
O       5.90077     13.41910      9.26381        -0.307645      0.095857      0.652353
O       5.69379      5.87038      0.59854         0.323970     -0.520427      1.158976
O       5.80244      5.85499     13.46010         0.015178     -0.021334      1.903367
O       5.70725      5.69042      4.90439         0.218782      0.324125     -0.163751
O       5.71737      5.74807      9.19585        -0.078518     -0.027716      1.079078
O       5.83329      9.62618      0.58012         0.020624     -0.056306      0.188631
O       6.01354      9.51424     13.66832        -0.844810      0.196855      0.228622
O       5.50884      9.71011      4.85146         0.775658     -0.234448     -0.294495
O       5.79969      9.76869      9.27829         0.084155     -0.183997     -0.310853
O       9.57857      1.92330      0.62163         0.294515      0.061349      0.732380
O       9.57308      1.73707     13.61422         0.061005      0.079934      0.500005
O       9.62418     13.30843      0.38151         0.172898      0.467903      0.582722
O       9.71207     13.85480     13.58373        -0.205426     -0.919780      0.077213
O       9.84311      1.90540      4.81193        -0.527333      0.255505      1.658959
O       9.67385     13.39282      4.73331        -0.234087      0.046828      1.768348
O       9.73987      1.97490      9.12453        -0.426724     -0.109749      1.350536
O       9.46182     13.55637      9.05084         0.443543     -0.419741      1.270788
O       9.67308      5.69620      0.55904        -0.133152      0.123668     -1.534565
O       9.56426      5.78975     13.43689         0.407214     -0.093986      0.921163
O       9.75509      5.91787      4.85236        -0.296533     -0.137879     -1.237731
O       9.80808      5.90513      9.34384        -0.468348     -0.677293     -0.474451
O       9.43394      9.60815      0.52079         0.330342      0.027298      0.438087
O       9.54729      9.67780     13.54089         0.310653     -0.306631      0.711690
O       9.66616      9.63472      4.72453        -0.125530     -0.244430      1.920487
O       9.68363      9.55635      9.20268        -0.099630      0.208649      0.431527
O       3.90919      1.96231      2.68340        -0.461396     -0.378958     -0.150122
O       3.95820      1.91876     15.66033        -1.084703      0.323113     -0.111523
O       3.87979     13.57131      2.83815        -0.860443     -0.252789     -0.577386
O       3.93389     13.46607     15.79548        -0.898305      0.137023     -0.732225
O       0.01300      1.81676      2.61570        -0.686329      0.410748     -0.184492
O      15.45935      1.86535     15.75009        -0.137216      0.266165     -0.191540
O      15.35122     13.42396      2.58399        -0.409581      0.218001     -0.318212
O       0.05981     13.58510     15.83150        -0.511591     -0.285924     -0.527733
O       3.80347      1.83454      6.92817         0.730926      0.061149      0.112047
O       3.87303     13.46223      7.01046         0.397793      0.582529     -0.287928
O      15.38027      1.95683      6.83789         0.255225     -0.085455      0.385313
O      15.39342     13.46473      6.99437        -0.607862     -0.072909      0.123886
O       3.82819      1.89833     11.25047         0.159882     -0.189174     -0.113404
O       3.82670     13.37197     11.49885         0.016197      0.043544     -0.637914
O       0.02202      1.98335     11.41975         0.285876     -0.108022     -0.489235
O      15.43947     13.57192     11.24859        -0.198065     -0.017531     -0.322999
O       3.81684      5.82091      2.86000        -0.197783     -0.469351     -0.592681
O       3.84967      5.68097     15.70877         0.310368      0.521063     -0.314303
O      15.37911      5.77352      2.84547         0.407285     -0.053827     -0.563124
O      15.43606      5.64246     15.73212        -0.468592      0.338180     -0.291888
O       3.85588      5.81571      6.98164        -1.094287     -0.075835      0.162240
O      15.42823      5.70754      7.21994         0.116695      0.195277     -0.635884
O       3.81618      5.80989     11.54773         1.229427     -0.390318     -0.846795
O       0.07470      5.86756     11.33822        -1.450753     -0.405679     -0.120540
O       3.79857      9.63820      2.69806         0.143288      0.350463     -0.280946
O       3.82779      9.55132     15.75880        -0.096422      0.461626     -0.311891
O      15.33714      9.68665      2.69418         0.393993      0.211207     -0.067943
O      15.38216      9.66924     15.83290         0.453017     -0.242898     -0.608068
O       3.81866      9.68040      7.15223         0.839157     -0.083732     -0.400734
O      15.38157      9.72100      7.06774         0.942039     -0.169660     -0.367910
O       3.85072      9.70938     11.33704        -0.311808     -0.100668      0.092728
O       0.00447      9.52430     11.31521        -0.203594      0.876079     -1.050068
O       7.78931      1.95251      2.94446        -0.570602     -0.508935     -0.613417
O       7.66391      1.78589     15.81968         0.843556      0.243897     -0.257274
O       7.72599     13.58757      2.62648        -0.001594     -0.320160     -0.100972
O       7.68554     13.54077     15.64216         0.725049      0.020152      0.024347
O       7.71391      2.01892      7.07608         0.825035     -0.089014     -0.721801
O       7.67667     13.39337      6.86999        -0.320675      0.412901     -0.035728
O       7.69204      1.94465     11.48128         0.209198     -0.192193     -0.434853
O       7.80268     13.47250     11.43567        -0.831620     -0.525308     -0.104228
O       7.67578      5.79933      2.77739         0.083360      0.029364     -0.230918
O       7.72085      5.84848     15.64903         0.086936     -0.113398      0.207352
O       7.68115      5.75582      7.04845         0.575041      0.322865     -0.082658
O       7.76187      5.87132     11.29430        -0.447908     -0.635158     -0.036849
O       7.65933      9.74585      2.94282        -0.324322     -0.858470     -1.013689
O       7.69945      9.49344     15.84078         0.060827      0.165898     -0.204326
O       7.73479      9.58862      6.92386        -0.517753      0.084460     -0.264880
O       7.74141      9.61382     11.45778         0.406733      0.116266     -0.578515
O      11.58045      1.94858      2.81261         0.717470      0.068047     -0.654876
O      11.49216      1.83093     15.70911         0.676879      0.128290      0.131241
O      11.50619     13.31167      2.65321         0.525606      0.761503     -0.694689
O      11.56006     13.46180     15.60399        -0.064531      0.073731      0.093226
O      11.58086      1.86176      7.13193        -1.027399      0.415299     -0.629091
O      11.46713     13.42479      6.98761         0.681935      0.133814     -0.131326
O      11.61752      1.92209     11.42453        -0.638543      0.041518     -0.057219
O      11.51474     13.60047     11.26474         0.755444     -0.045288      0.048734
O      11.49373      5.92583      2.68323         0.442468     -0.781463     -0.349319
O      11.55873      5.73560     15.67107         0.241391     -0.144306     -0.091783
O      11.50917      5.84229      7.18514         1.037745     -0.157033     -0.629693
O      11.62072      5.75968     11.60307        -0.369590     -0.615848     -0.449479
O      11.47265      9.54924      2.56592         0.057635      0.221600     -0.050179
O      11.57168      9.61326     15.61948         0.052915      0.181087      0.027930
O      11.56047      9.53862      7.09409        -0.781091      0.239636     -0.447312
O      11.61256      9.68157     11.44326        -0.312720      0.307625     -0.012142
O       1.90199      3.76097      2.74676        -0.230385      0.930121     -0.303542
O       1.99127      3.88467     15.65399        -0.429446     -0.836933     -0.166590
O       1.90540     15.42531      2.65588         0.046435      0.348978      0.078962
O       1.96422      0.03212     15.71735         0.033279     -0.330594     -0.071092
O      13.50377      3.88174      2.89633        -0.285713     -0.490981     -0.776507
O      13.42044      3.77787     15.80656         0.224450      0.521946     -0.463302
O      13.42031     15.37263      2.72383        -0.091868      0.027688     -0.986906
O      13.51169     15.42756     15.82934        -0.140210      0.319602     -0.260683
O       1.90324      3.85053      7.00110         0.008190     -0.047658     -0.294617
O       1.86109     15.42806      7.01325         0.078947     -0.136272     -0.152716
O      13.34694      3.82270      7.12642         0.650742      0.110985     -0.465182
O      13.39826     15.44801      6.99494         0.433099     -0.833456     -0.102174
O       1.98305      3.87883     11.36684        -0.412427     -0.766131     -0.310531
O       1.90794     15.45415     11.22454        -0.004720     -0.618172     -0.051387
O      13.54173      3.84302     11.47421        -0.094681     -0.016392     -0.231486
O      13.51788      0.03223     11.37887         0.226102     -0.954417     -0.313363
O       1.88907      7.72573      2.64635        -0.123634     -0.146976      0.099541
O       1.86841      7.72648     15.86914        -0.327324     -0.529235     -0.805937
O      13.51643      7.75745      2.73641        -0.220859     -0.498772     -0.432646
O      13.50348      7.72456     15.59621         0.038356     -1.039091      0.049042
O       1.87977      7.71440      7.12817        -0.116768     -0.052200     -0.529231
O      13.60988      7.68771      7.35919        -0.191884     -0.800503     -0.871188
O       1.92832      7.63663     11.19795         0.343765      2.340899      0.384671
O      13.27535      7.71710     11.44525         1.191684     -0.165724     -0.568756
O       1.94915     11.61977      2.73227        -0.242918     -0.538822     -0.168651
O       1.89300     11.57526     15.78675         0.240013      0.073035     -0.522443
O      13.37518     11.54757      2.68584         0.299663      0.155186     -0.282374
O      13.54074     11.59429     15.60366         0.099541      0.030063     -0.182110
O       1.98378     11.63913      7.14489        -0.581327     -0.894879     -0.361426
O      13.44154     11.49179      6.96562        -0.148216      0.768856     -0.013661
O       1.77899     11.50647     11.35225         0.646829      0.594463     -0.285105
O      13.52470     11.68099     11.29191        -0.220993     -0.072601     -0.341556
O       5.80510      3.85068      2.78922         0.034160      0.039399     -0.142084
O       5.95010      3.76731     15.74100        -0.222708      1.151694     -0.295588
O       5.82199     15.43760      2.73676         0.061787      0.849342     -0.022263
O       5.74702      0.01551     15.64383         0.275400     -1.352444      0.170652
O       5.71046      3.86379      7.11812         0.182118     -0.714038     -0.475536
O       5.86235      0.00580      7.00883        -0.209761     -0.605825     -0.272794
O       5.70647      3.81273     11.42715         0.392823      0.405014     -0.484379
O       5.77913     15.31923     11.43289        -0.083818      0.547048     -0.575496
O       5.70539      7.74184      2.82123         0.538983      0.083491     -0.086103
O       5.72328      7.62889     15.85928         0.102830     -0.105868     -0.501156
O       5.80440      7.71697      7.10862        -0.046867      1.351537     -0.408360
O       5.78315      7.70376     11.46332        -0.162500      0.344005     -0.670875
O       5.81400     11.56543      2.67167        -0.345487      0.223278      0.006941
O       5.79560     11.54442     15.68557         0.158562     -0.388596      0.087610
O       5.78094     11.61403      6.93691        -0.039128     -0.432308     -0.109695
O       5.80188     11.54042     11.51389         0.102579      0.378181      0.055407
O       9.55771      3.83351      2.84110         0.731036      0.770093     -0.244035
O       9.54320      3.81066     15.66071         0.164975      0.461786      0.142337
O       9.76938     15.38554      2.73851        -0.339215      0.154523     -0.554460
O       9.63036     15.43631     15.92268         0.011352     -0.718643     -0.310063
O       9.69516      3.98094      6.93676         0.021432     -1.979961     -0.171396
O       9.57814     15.38926      6.89972         0.027745      0.866366     -0.046879
O       9.68198      3.79718     11.47596        -0.106369      0.426156     -0.191913
O       9.47376      0.00899     11.21117         0.698966     -0.082485      0.378036
O       9.46723      7.70374      2.65910         0.030835      0.433116     -0.235749
O       9.72434      7.65799     15.67816        -0.297039     -0.111441      0.083130
O       9.62196      7.66588      7.14576        -0.108616      1.042661     -0.566195
O       9.81561      7.68976     11.35576        -0.449063      0.659475      0.237398
O       9.52493     11.56421      2.68912         0.263891     -0.378716     -0.369060
O       9.54323     11.53603     15.69442         0.075032      0.171557     -0.261264
O       9.59940     11.52956      7.01509        -0.131482     -0.542752     -0.544762
O       9.74903     11.54564     11.32177        -0.482757      0.693600     -0.167531
