  # total energy = -7881.52090033 
CRSYTAL
PRIMVEC
    15.464    0.0000000000000000    0.0000000000000000
     0.0000000000000000   15.464    0.0000000000000000
     0.0000000000000000    0.0000000000000000   17.350608
PRESSURE
0.234685 0.340839 2.05886 -0.251815 -0.013447 0.01207
PRIMCOORD
320 1
Pb       3.84832      3.98485      4.29698         0.159957     -0.602817     -0.018983
Pb       3.87048      3.98091      0.03519         0.417085     -0.438386     -0.724753
Pb       3.73798     15.37128      4.27686         0.972338      0.078491      0.734323
Pb       3.84189     15.41057     17.14875        -0.413257      0.551172      0.575651
Pb       0.19745      3.80938      4.36582        -0.758776      0.051545     -0.419459
Pb      15.44425      3.73554     17.33311        -0.044485     -0.228836      0.160474
Pb       0.16963     15.45938      4.30145        -0.858361     -0.207539     -0.004436
Pb       0.03105     15.33570     17.25185         0.009718      0.179940     -0.004760
Pb       3.72373      3.93750      8.57603         0.289831      0.016159      0.722854
Pb       3.73781     15.35554      8.77773         0.448951      0.108876     -0.473500
Pb      15.46132      3.72514      8.58368        -0.244882      0.485915      0.456521
Pb      15.44522     15.39882      8.53910         0.027456     -0.150636      0.963670
Pb       3.65084      3.83983     12.94126         1.184553      0.093248      0.569464
Pb       3.76482     15.27285     12.99942         0.240396      0.850963      0.008880
Pb       0.02396      3.88046     12.96700        -0.196053      0.556575      0.055655
Pb      15.45094      0.12389     12.95972         0.345982     -0.562385     -0.170307
Pb       3.72643      7.79816      4.28417         0.302689     -0.193256      0.020563
Pb       3.64221      7.56515      0.08525         0.867320      0.490908     -0.053467
Pb      15.38095      7.71466      4.22367         0.125414     -0.179749      0.748329
Pb      15.42884      7.68226      0.02771        -0.074123      0.143100      0.384804
Pb       3.97001      7.82252      8.57107        -0.578222     -0.235170      0.583012
Pb       0.17477      7.66824      8.48970        -0.770389      0.453695      0.827997
Pb       3.79805      7.62407     13.06271         0.035393      0.101538     -0.523829
Pb       0.02426      7.88326     13.00493        -0.195327     -0.704212     -0.356343
Pb       3.80517     11.64325      4.26329         0.245181     -0.561872      0.939437
Pb       3.78506     11.62891     17.27207         0.016039     -0.470596      0.230231
Pb       0.04659     11.54846      4.25676        -0.235578      0.461153      0.840960
Pb       0.10705     11.60600     17.23232        -0.417593      0.262646      0.154023
Pb       3.86584     11.63304      8.47051        -0.443059     -0.478521      0.922969
Pb      15.38941     11.50959      8.59089        -0.104419      0.354257      0.039852
Pb       3.75965     11.55140     13.01300        -0.330832      0.088043      0.079148
Pb      15.44290     11.80280     12.85646         0.169339     -0.848215      1.008562
Pb       7.60895      3.79478      4.28104         0.537873      0.246145      0.336284
Pb       7.71704      3.98214     17.27175        -0.365400     -0.565398     -0.026149
Pb       7.80729     15.39866      4.31242        -0.282504     -0.160455      0.148792
Pb       7.63964     15.35410     17.22043         0.806906      0.518281      0.509096
Pb       7.65342      3.89593      8.74240         0.072151     -0.349013     -0.305959
Pb       7.63760      0.15286      8.66184        -0.068348     -0.796237      0.103221
Pb       7.57977      3.81770     12.90757         0.418207     -0.063230      0.495779
Pb       7.79162      0.03572     12.93822        -0.020455      0.093978     -0.166433
Pb       7.66631      7.75557      4.29147         0.397714     -0.444720      0.041288
Pb       7.73444      7.67456     17.30215        -0.341946      0.043001      0.804623
Pb       7.77192      7.71675      8.63355        -0.495097      0.093719      0.469093
Pb       7.54359      7.71735     12.99236         0.631803     -0.292774     -0.076188
Pb       7.79358     11.56799      4.24830        -0.172588      0.423098     -0.261343
Pb       7.74207     11.50573     17.26266        -0.025466      0.329543      0.851294
Pb       7.61903     11.60769      8.65577         0.596450     -0.060913     -0.237412
Pb       7.72411     11.55673     13.01412         0.318502     -0.144162      0.143880
Pb      11.49025      3.83487      4.30957         0.055018     -0.571240      0.704603
Pb      11.56735      3.88590      0.06812         0.029952     -0.228025     -0.403899
Pb      11.64826     15.41144      4.20703        -0.110643      0.362433      0.938845
Pb      11.50839      0.08905     17.32739         0.195612     -0.322033      0.235706
Pb      11.74827      3.92365      8.57188        -0.602920     -0.096231      0.183250
Pb      11.56782     15.41073      8.67829         0.011056      0.317396     -0.254434
Pb      11.59263      3.83862     13.04325        -0.062284      0.352986     -0.479607
Pb      11.69008     15.41927     12.95967        -0.478909      0.303269     -0.181871
Pb      11.74434      7.69464      4.32121        -0.867348      0.169876      0.640336
Pb      11.74138      7.80509     17.21036        -0.709762     -0.081267      0.880543
Pb      11.66709      7.73107      8.66675        -0.018122      0.033225      0.157012
Pb      11.57800      7.80477     13.07155        -0.105428     -0.122678     -0.914545
Pb      11.67480     11.38906      4.28374        -0.498954      0.591047      0.610809
Pb      11.50238     11.52386     17.17423         0.659714     -0.130658      0.893160
Pb      11.47725     11.49934      8.55556         0.835221      0.086155      0.779998
Pb      11.64507     11.58753     12.93816        -0.451681     -0.275246      0.072430
Ti       2.01491      1.89250      2.21553        -1.788622     -0.070155     -0.477783
Ti       1.90553      1.92305     15.33465         0.058539     -0.753898      1.436640
Ti       1.93224     13.41696      2.27681        -0.719251      0.651020      0.205548
Ti       1.97519     13.45595     15.20544        -1.607686      0.317525      0.489988
Ti      13.59094      1.94235      2.36321        -0.327692     -0.385330      1.810052
Ti      13.47522      1.88038     15.33045         0.740032      0.582983      0.258023
Ti      13.53646     13.50321      2.35597         0.423719     -0.116127      0.367418
Ti      13.47755     13.46926     15.31293         1.314773      0.206022      1.756823
Ti       1.94154      1.94097      6.68282        -0.675213     -0.657374      0.362688
Ti       1.91305     13.52132      6.66595        -0.253111      0.102217      0.143259
Ti      13.48739      1.92732      6.65274        -0.102515     -0.656148     -0.135415
Ti      13.49124     13.55449      6.61623         0.694692      0.198310      1.621526
Ti       1.94208      1.93292     11.02886         0.401970     -0.073822      0.784730
Ti       1.92066     13.51559     10.95884         0.262245     -0.325646     -0.012620
Ti      13.55564      1.98094     11.08106        -0.416994      0.182839     -0.644934
Ti      13.44368     13.57512     10.88376         1.792394     -0.561808      0.147181
Ti       1.82270      5.79139      2.34056         0.485610     -0.831164      0.483059
Ti       1.80352      5.76305     15.35536         0.900682     -0.967660     -0.903950
Ti      13.43859      5.75066      2.42748         1.428436     -0.253438      0.889334
Ti      13.52620      5.80005     15.43080         0.111086     -1.529722      0.038717
Ti       1.84660      5.87345      6.61128         0.806175      0.027229     -0.778832
Ti      13.48259      5.87237      6.63357         0.200357     -0.361093     -0.412222
Ti       1.94244      5.87012     10.92799        -0.462318     -1.111339     -0.233378
Ti      13.56182      5.83983     10.99846        -0.411855     -0.331694     -0.735169
Ti       1.87531      9.62916      2.31465         0.196805      0.080994      0.398710
Ti       1.95102      9.49789     15.35145        -0.347780      2.221180      0.494412
Ti      13.49926      9.72979      2.32068         0.141667     -0.777387     -0.940092
Ti      13.66343      9.62024     15.31557        -0.772467      1.054089      0.889474
Ti       1.88854      9.75461      6.52576         0.299180     -1.068142      1.065026
Ti      13.50457      9.64797      6.64904         0.003177     -0.324872      0.075382
Ti       1.91586      9.63128     11.04070        -0.155677      0.723078      1.443790
Ti      13.49226      9.69728     11.05455        -0.372487     -0.040741     -1.691617
Ti       5.73239      1.85483      2.32942         0.183473      0.268446     -0.797443
Ti       5.82647      1.88143     15.38103        -0.453502      1.470477     -0.795187
Ti       5.76634     13.52518      2.29939         0.857000     -0.216671      1.822590
Ti       5.81288     13.44419     15.32193         0.331768      0.080890      0.689543
Ti       5.63581      1.93465      6.74513         1.241000     -1.024137     -0.045311
Ti       5.82847     13.47627      6.75427        -0.625715      1.340405     -1.422227
Ti       5.74877      1.85518     11.04817        -0.264848      0.480168      0.279697
Ti       5.86944     13.43184     11.10054        -1.149324      1.038769      0.511778
Ti       5.73733      5.80556      2.37133         0.637659      0.107478     -0.408058
Ti       5.75792      5.85967     15.27476        -0.583321     -1.772326      2.703041
Ti       5.75128      5.76109      6.67439        -0.028322      0.154845      0.428290
Ti       5.82650      5.77085     11.00731        -0.975048      0.052209      0.569913
Ti       5.74150      9.70765      2.37479         0.308065     -0.400274     -0.361845
Ti       5.76657      9.56894     15.38162        -0.956845      0.605917      1.368903
Ti       5.78271      9.62190      6.54088        -0.364823      0.307238      1.396246
Ti       5.69563      9.67918     11.10407        -0.845137     -0.772161     -0.681600
Ti       9.56899      1.93897      2.38286         0.876091     -0.638914      0.155501
Ti       9.68464      1.94468     15.32115        -0.507107      0.236347      1.142152
Ti       9.75916     13.49669      2.32618        -0.835110     -0.344548     -0.599387
Ti       9.77857     13.45974     15.30624        -1.224899      0.800884      1.615211
Ti       9.59122      1.89865      6.80696         0.256677      0.049736     -0.500090
Ti       9.68903     13.47645      6.70424        -0.265860      0.894369      2.067567
Ti       9.69312      1.97878     10.99340         0.069153     -0.545385      0.443665
Ti       9.67645     13.43926     10.97867         0.441938      0.558927     -0.565074
Ti       9.69529      5.79020      2.30726        -1.194105     -0.100186      0.659628
Ti       9.66816      5.80726     15.33914        -0.149205     -1.018886      0.687753
Ti       9.57605      5.75216      6.74771         0.760077     -0.670711     -0.810355
Ti       9.61584      5.75981     10.91533         1.690215     -0.060358      0.701496
Ti       9.62635      9.58700      2.33449        -0.187964      0.565860     -0.718965
Ti       9.58951      9.54373     15.37312         1.052431      0.674753     -0.847299
Ti       9.58696      9.57234      6.67973         0.812405      0.168036     -0.599363
Ti       9.50864      9.59388     11.03117         1.774700     -0.268567     -0.615427
O       1.77494      1.82522      0.44715         0.895688      0.101454      0.951892
O       1.83483      1.78970     13.58772        -0.070228      0.195117     -0.770858
O       1.97509     13.36839      0.51586        -0.023345      0.372297      0.347324
O       1.97512     13.54162     13.43829        -0.127635      0.229808     -0.397254
O      13.48399      1.89939      0.66850         0.030433      0.060764     -1.144044
O      13.48296      1.95046     13.54972         0.217173     -0.731021      0.074903
O      13.49920     13.34423      0.63268        -0.113573      0.249168     -0.578453
O      13.39099     13.51655     13.62434         0.066779      0.119957     -1.828817
O       1.87947      1.98067      4.93616         0.266729     -0.130723     -0.214643
O       1.96233     13.41023      4.91029         0.003752      0.130462     -0.583072
O      13.59782      1.70111      4.92813        -0.083701      0.505562     -0.101511
O      13.71857     13.65825      4.92861        -0.530365     -0.329626     -0.677151
O       1.90628      2.02364      9.32625         0.291556      0.155679     -1.644241
O       2.07181     13.38335      9.19657        -0.494343      0.344456      0.141158
O      13.56652      2.03917      9.33014        -0.204835      0.206157      0.011879
O      13.57812     13.62900      9.14344        -0.262335     -0.720534      0.052607
O       1.95299      5.85963      0.59398        -0.331426     -0.183742     -1.176001
O       1.82494      5.79704     13.55687        -0.022299      0.148937      1.068560
O      13.47707      5.75359      0.71582        -0.079918      0.277253     -1.546994
O      13.58532      5.76937     13.72197        -0.060740      0.279338     -1.159583
O       1.77014      5.80662      4.81110         0.928737     -0.479309      0.270756
O      13.41466      6.00860      4.86286         0.512027     -0.426506      0.109648
O       1.79946      5.91951      9.14332         0.503849     -0.499764      0.237184
O      13.60757      5.78498      9.20048        -0.014190      0.027307      0.684611
O       1.87866      9.67613      0.60037        -0.043245     -0.187724     -1.207444
O       1.91697      9.65383     13.61874        -0.091818     -0.677169     -0.890619
O      13.39779      9.73025      0.51337         0.345818     -0.341453      1.188170
O      13.61729      9.48757     13.58150        -0.066037      0.418835     -0.674322
O       1.97934      9.75763      4.78884        -0.012831     -0.385027     -0.378131
O      13.57149      9.53730      4.87283        -0.479685      0.277640      0.203535
O       1.96902      9.63953      9.36589         0.038026     -0.017047     -2.002362
O      13.47302      9.68575      9.22832         0.146492      0.147944      1.261957
O       5.74079      1.90384      0.54096         0.046067     -0.087798      0.761470
O       5.84398      1.99795     13.61811        -0.033573     -0.365780      0.323919
O       5.63685     13.41182      0.61770         0.277054      0.536851     -1.932058
O       5.95007     13.39892     13.61510        -0.207143      0.026513     -0.949655
O       5.59224      1.93983      5.00246         0.243035      0.236252     -0.285965
O       5.74995     13.44139      5.00543         0.243852      0.192055     -0.290570
O       5.68819      1.81528      9.30481        -0.001157      0.132379     -0.008833
O       5.76206     13.45484      9.37637         0.209221     -0.333168     -1.065458
O       5.68878      5.76354      0.59824        -0.018518      0.362158      0.038342
O       5.70586      5.73818     13.58939         0.216785      0.442880     -1.807795
O       5.83253      5.81843      4.92800        -0.301290     -0.498617     -0.078470
O       5.89552      5.82377      9.29710        -0.177063      0.042197     -1.282800
O       5.81895      9.58072      0.64678        -0.107327      0.131654     -0.570676
O       5.69735      9.56477     13.65291         0.294158      0.213320     -0.381662
O       5.75404      9.59507      4.83312        -0.034100      0.113622     -1.039124
O       5.55287      9.63870      9.35337         0.523107      0.341967     -0.069146
O       9.65229      2.00184      0.65279        -0.065252     -0.157711     -0.535853
O       9.72514      1.91167     13.61265        -0.137532     -0.229905     -1.287536
O       9.82140     13.44698      0.55732        -0.005263      0.340404      0.295250
O       9.82674     13.57973     13.60284        -0.341505     -0.265032     -1.291715
O       9.50110      1.87985      5.06671         0.097083     -0.054814     -0.636289
O       9.68598     13.57492      5.03360        -0.448387     -0.442375     -2.331742
O       9.79677      1.94555      9.27542        -0.433694      0.180028     -1.046110
O       9.69144     13.40414      9.22881        -0.255433     -0.092361      0.155746
O       9.66840      5.73066      0.54601         0.135140      0.004915      0.497697
O       9.57422      5.78684     13.63394         0.518987      0.238364     -0.681111
O       9.52727      5.71226      4.99387         0.142898      0.243577     -0.116711
O       9.72733      5.71613      9.16044        -0.644300      0.034453     -0.171880
O       9.64705      9.63264      0.55470        -0.030217     -0.149041     -0.055122
O       9.53493      9.60633     13.61173         0.053089     -0.438741     -0.167966
O       9.62555      9.58408      4.91303         0.029428      0.145381     -0.081020
O       9.56253      9.51633      9.26489        -0.006935      0.528245     -0.068619
O       3.81304      1.77057      2.76456         0.571905      1.238032     -0.342418
O       3.77999      1.94520     15.78176         0.665946     -0.397120     -0.319155
O       3.83287     13.23762      2.76300         0.207873      1.478505     -0.830177
O       3.77935     13.58658     15.65912         2.161155     -0.560361     -0.059999
O       0.07571      1.77152      2.72157        -0.802763      0.191874     -0.004880
O      15.39981      1.81184     15.90550        -0.302088      0.310836     -1.024851
O       0.01833     13.43635      2.73625         0.394567      0.472630     -0.263215
O       0.11614     13.43422     15.61165        -1.675362      0.705660      0.313482
O       3.80623      1.87665      7.13250        -0.979119      0.598731      0.259657
O       3.79325     13.62934      7.04273         0.679350     -1.167729      0.366640
O      15.45368      1.80491      7.20308         0.249378      1.094478     -0.855103
O      15.46078     13.53054      7.08784        -0.413078     -0.275291     -0.036962
O       3.83612      1.90175     11.49843         0.249368      0.021198     -0.025417
O       3.86521     13.60928     11.43072         0.413929     -0.627481     -0.037127
O       0.07107      1.93814     11.35369        -1.551611     -0.138723      0.730508
O      15.45162     13.48242     11.41048        -0.072627      0.708301     -0.754560
O       3.79761      5.63496      2.64475         0.265100      0.532568      0.562476
O       3.76042      5.82350     15.71568        -0.026450     -0.105630      0.225049
O       0.02098      5.73817      2.83641        -1.176790      0.546378     -0.479909
O      15.43881      5.74114     16.00914        -0.175379      0.358096     -0.785094
O       3.78894      5.73079      6.99854         1.236054     -0.078071     -0.105502
O       0.02931      5.94303      6.92793        -0.585561     -0.312636      0.176597
O       3.85622      5.67824     11.32662        -0.295961      0.826911      0.182037
O       0.01688      5.78530     11.40779        -0.501167     -0.043890      0.014423
O       3.79572      9.63945      2.60949         0.631462      0.237806      0.666977
O       3.73005      9.63990     15.89671         1.405643     -0.269531     -0.592563
O      15.45557      9.55433      2.67811        -0.671858      0.188615     -0.133398
O       0.02625      9.61698     15.91223        -0.161201     -0.415966     -0.778665
O       3.77121      9.57353      7.12182         0.959311      1.478370     -0.981404
O       0.00555      9.60692      6.98112         0.219450      0.285535      0.079986
O       3.78241      9.68123     11.60429         0.375320     -0.591642     -0.247842
O      15.42088      9.79004     11.36215         0.304560     -0.670178      0.310496
O       7.63939      1.79185      2.78736         0.157578      0.548706     -0.093397
O       7.72024      2.02059     15.68514        -0.159772     -0.708939      0.325973
O       7.75831     13.57223      2.67167        -0.098720      0.047547      0.170361
O       7.80236     13.51770     15.83834        -0.585738     -0.441221     -0.621229
O       7.60537      1.90868      7.18635         0.440829      0.393933      0.048614
O       7.68193     13.50183      7.16249         0.328762     -0.475726      0.073604
O       7.69398      1.99020     11.33281         0.097371     -0.709472      0.337313
O       7.79158     13.34953     11.48039        -0.588436      0.247727     -0.153733
O       7.72355      5.64919      2.63878         0.378409      0.834456      0.128797
O       7.67843      5.89477     15.73378        -0.127401     -0.398952     -0.114946
O       7.69853      5.78582      7.18643        -0.803198     -0.247676     -0.242414
O       7.74348      5.80429     11.46181        -0.495942      0.323207     -0.300715
O       7.67228      9.55651      2.69763         1.168863      0.003847      0.428326
O       7.69021      9.55390     15.79525        -0.540322      0.290103     -0.315353
O       7.73585      9.67707      6.95031        -1.098207     -0.048182      0.392463
O       7.65984      9.57751     11.40345        -0.322199      0.295128      0.268694
O      11.55379      1.96498      2.77408         0.561463     -0.300025      0.047184
O      11.60565      1.95731     15.76863        -0.173118     -0.203630      0.124977
O      11.63040     13.33995      2.92122        -0.310308      0.361663     -0.624199
O      11.60652     13.48891     15.75629        -0.157266     -0.138863     -0.032757
O      11.55375      1.95590      7.11784         0.973008     -0.314002     -0.211390
O      11.61031     13.64283      7.01918        -0.271495     -0.512740      0.101253
O      11.59063      1.88700     11.46890         0.121413      0.303756      0.014255
O      11.66153     13.36538     11.23734        -1.994682      0.605101      0.619553
O      11.58275      5.66717      2.84500        -0.729050      0.396264     -0.543997
O      11.62672      5.70277     15.85153        -0.408280      0.731159     -0.493124
O      11.63340      5.85177      7.00069        -0.600218     -0.091464      0.357803
O      11.61092      5.62453     11.24046        -0.070886      0.291559      0.656499
O      11.57865      9.63933      2.70837         0.397801      0.470795      0.024373
O      11.60213      9.50502     15.60335        -0.069194      0.542607      0.019508
O      11.62377      9.58962      7.06849        -0.857930     -0.294359     -0.129262
O      11.56884      9.66552     11.42266         0.130089     -0.195123      0.532710
O       1.75507      3.77610      2.55032         0.930181     -0.008076      0.535710
O       1.83776      3.82402     15.67311        -0.134029      0.357113      0.109750
O       2.01780     15.39668      2.75898        -0.331303     -0.764240     -0.713857
O       1.90920     15.42698     15.76390        -0.074417     -0.102374     -0.351890
O      13.57667      3.87658      2.75713         0.045756     -1.002438      0.218909
O      13.50953      3.79906     15.69567         0.324425      0.009750      0.554505
O      13.48428     15.33094      2.76379         0.143000      1.267119     -0.553286
O      13.51492     15.37758     15.71175        -0.180465      0.483122      0.098336
O       1.84281      3.87571      7.06451         0.137427     -0.336609     -0.316003
O       1.89971     15.41681      7.04066         0.096406      0.870744     -0.038568
O      13.62805      3.91931      6.84761        -0.076794     -0.598596      0.616561
O      13.53797      0.04818      7.21643        -0.367524     -0.320719     -0.566572
O       1.92940      3.91518     11.50647        -0.526059     -0.543282     -0.801071
O       1.93441     15.44832     11.26162        -0.136582     -0.024387      0.538512
O      13.49644      3.84252     11.59113         0.563169      0.117707     -0.624292
O      13.44809     15.40162     11.31223         0.404663      1.072388      0.615612
O       1.98878      7.63780      2.63838        -0.187341      1.248344      0.268403
O       1.85280      7.66842     15.72005        -0.276715     -0.294509      0.274836
O      13.51683      7.74034      2.82629        -0.210402     -0.010775     -1.077550
O      13.56943      7.71585     15.68982         0.242310     -0.129372      0.628035
O       2.14325      7.76348      6.88395        -1.370245     -0.212903      0.150445
O      13.54363      7.73574      7.09587        -0.006657      0.250916      0.074163
O       1.92174      7.65815     11.38723         0.043152      1.332285      0.389945
O      13.46259      7.73334     11.39849         0.283978     -0.047280      0.241136
O       1.80216     11.54674      2.76357         0.689313     -0.176265     -0.532436
O       1.88231     11.58436     15.58325         0.651767     -0.548579      0.445353
O      13.62095     11.55910      2.91009        -0.642003     -0.751328     -0.636978
O      13.63573     11.57097     15.72009        -0.675470     -0.599301     -0.473803
O       1.80674     11.59583      7.03811         0.692737     -0.530754      0.009219
O      13.41059     11.56422      6.99161         0.588141      0.320555     -0.082540
O       2.00894     11.61619     11.36393        -0.310770     -0.233790      0.339212
O      13.46378     11.65264     11.57302         0.629283     -0.869427     -0.888608
O       5.76193      3.88485      2.75382        -0.372527     -1.093638      0.161201
O       5.68646      3.88496     15.79045         0.396743      0.196865      0.008536
O       5.73183     15.44292      2.76104        -0.342494     -0.626565     -0.216236
O       5.83905     15.35942     15.63635        -0.255893      0.732484      0.382281
O       5.77182      3.86701      7.23052        -0.288038      0.276275     -0.566298
O       5.67934     15.41903      7.17622         0.511227      0.257774      0.055677
O       5.76763      3.89085     11.33289         0.251187     -0.609810      0.230699
O       5.82435     15.41096     11.51746         0.383425     -0.185583     -0.116568
O       5.78703      7.70701      2.89532        -0.621404     -0.454606     -0.703947
O       5.66097      7.72074     15.71621         0.306313      0.137116      0.026072
O       5.77066      7.77737      7.04901         0.211928     -0.994481     -0.114414
O       5.70098      7.76413     11.46996         0.040303     -0.695068      0.280029
O       5.98616     11.61251      2.67889        -0.769147     -0.510701      0.359238
O       5.72957     11.59096     15.83232         0.295681     -0.665411     -0.491432
O       5.80228     11.51814      6.94654        -0.325099      0.081654      0.779854
O       5.68015     11.54684     11.55520         0.744664      0.296536     -0.167290
O       9.63880      3.78121      2.85588        -0.281296      0.840418     -0.327738
O       9.60389      3.86353     15.74360         0.350388      0.370346      0.130017
O       9.69999     15.41802      2.76608         0.147002      0.056914     -0.214106
O       9.69532      0.04063     15.80802        -0.206774     -0.568899     -0.220990
O       9.70304      3.82371      7.02730        -0.467417      0.577172      0.699536
O       9.55978     15.40256      7.10594         0.218309      0.388235      0.544086
O       9.54978      3.82158     11.43828         0.482856      0.552746     -0.118908
O       9.60315     15.39708     11.26576         0.180769     -0.106679      0.629981
O       9.77808      7.71560      2.69695        -0.630957     -1.019366     -0.207185
O       9.60600      7.69031     15.78552         0.439227     -0.054934     -0.013987
O       9.52470      7.67885      7.18101         0.824020      0.483769     -0.555613
O       9.77940      7.62949     11.30299        -0.569376      0.639633      0.555480
O       9.58153     11.57993      2.60438         0.167077     -0.666746      0.793324
O       9.61248     11.53002     15.68723         0.139471      0.039563     -0.219091
O       9.73580     11.51992      7.12182        -0.812880      0.105122     -0.496150
O       9.68418     11.49049     11.35227        -0.391071      0.329050      0.471191
